version 2
run General-0-20190904-11:39:19-1204
attr configname General
attr datetime 20190904-11:39:19
attr experiment General
attr inifile is1_3h_2s.ini
attr iterationvars ""
attr iterationvarsf ""
attr measurement ""
attr network ib_model.examples.is1_3h_2s.p2p_3h_2s
attr processid 1204
attr repetition 0
attr replication #0
attr resultdir results
attr runnumber 0
attr seedset 0
param **.startStatCol 200us
param **.flitSize 64B
param **.dstMode "\"param\""
param **H_1**.dstLid 3
param **H_2**.dstLid 0
param **H_3**.dstLid 0
param **.app.dstSeqVecFile "\"\""
param **.app.dstSeqVecIdx 0
param **.msgLenMode "\"param\""
param **.msgMtuLen 1500B
param **.msgLength 16384B
param **.msgLenSet "\"1152 2048 4096\""
param **.msgLenProb "\"1 1 1 1\""
param **.msg2msgGap 1us
param **.msgSQ 0
param **.maxContPkts 10
param **.popDlyPerByte 0.25ns
param **.genDlyPerByte 0.25ns
param **.maxQueuedPerVL 4
param **.flit2FlitGap 0.001ns
param **.pkt2PktGap 0.001ns
param **ibuf.maxBeingSent 3
param **ibuf.maxStatic0 200
param **ibuf.totalBufferSize 1000
param **.SW**.fdbsVecFile "\"3h_2s.fdbs\""
param **.SW_1**.fdbIndex 0
param **.SW_2**.fdbIndex 1
param **.pktFwdType "\"Pktfwd\""
param **.width 4
param **.speed 10Gbps
param **.maxVL 0
param **.sink.hiccupDuration 0.001us
param **.sink.hiccupDelay 10000us
param **.sink.repFirstPackets 0
param **.obuf.credMinTime 0.256us
param **SW**.obuf.size 78
param **H_**.obuf.size 36
param **.obuf.width 4
param **.ibuf.maxStatic* 200
param **.ibuf.lossyMode false
param **.ISWDelay 50ns
param **.VSWDelay 50ns
param **.vlarb.width 4
param **SW**.vlarb.coreFreq 250MHz
param **H_**.vlarb.coreFreq 200MHz
param **SW**.vlarb.busWidth 24B
param **H_**.vlarb.busWidth 16B
param **.vlarb.vlHighLimit 16
param **.vlarb.highVLArbEntries "\"0:1 1:20 2:40 3:80\""
param **.vlarb.lowVLArbEntries "\"0:1 1:20 2:40 3:80\""
param **.vlarb.useFCFSRQArb false
param **.pktfwd.AdaptMode "\"none\""
param **.pktfwd.LIDBindTime 2us
param **.pktfwd.TQBusy1Thd 20
param **.pktfwd.TQBusy2Thd 40
param **.pktfwd.TQBusy3Thd 80
param **.pktfwd.ARAdaptThd 4
param **.pktfwd.OPSelAlgo "\"greedy\""
param **.pktfwd.GreedyRandSize 3
param **.pktfwd.statRepTime 10us
param **.pktfwd.OPSelOffsetByDLID 0
param **.gen.genDlyPerByte 0.3077ns
param **.sink.popDlyPerByte 0.3077ns

vector 0 p2p_3h_2s.SW_2.isw_port[0].vlarb "free credits on VL0" ETV
vector 1 p2p_3h_2s.SW_2.isw_port[0].vlarb "Binary coded VL's with data" ETV
vector 2 p2p_3h_2s.SW_2.isw_port[0].vlarb "arbitrated VL" ETV
vector 3 p2p_3h_2s.SW_2.isw_port[1].vlarb "free credits on VL0" ETV
vector 4 p2p_3h_2s.SW_2.isw_port[1].vlarb "Binary coded VL's with data" ETV
vector 5 p2p_3h_2s.SW_2.isw_port[1].vlarb "arbitrated VL" ETV
vector 6 p2p_3h_2s.SW_1.isw_port[0].vlarb "free credits on VL0" ETV
vector 7 p2p_3h_2s.SW_1.isw_port[0].vlarb "Binary coded VL's with data" ETV
vector 8 p2p_3h_2s.SW_1.isw_port[0].vlarb "arbitrated VL" ETV
vector 9 p2p_3h_2s.H_3.vlarb "free credits on VL0" ETV
vector 10 p2p_3h_2s.H_3.vlarb "Binary coded VL's with data" ETV
vector 11 p2p_3h_2s.H_3.vlarb "arbitrated VL" ETV
vector 12 p2p_3h_2s.SW_2.isw_port[2].vlarb "free credits on VL0" ETV
vector 13 p2p_3h_2s.SW_2.isw_port[2].vlarb "Binary coded VL's with data" ETV
vector 14 p2p_3h_2s.SW_2.isw_port[2].vlarb "arbitrated VL" ETV
vector 15 p2p_3h_2s.H_1.vlarb "free credits on VL0" ETV
vector 16 p2p_3h_2s.H_1.vlarb "Binary coded VL's with data" ETV
vector 17 p2p_3h_2s.H_1.vlarb "arbitrated VL" ETV
vector 18 p2p_3h_2s.H_2.vlarb "free credits on VL0" ETV
vector 19 p2p_3h_2s.H_2.vlarb "Binary coded VL's with data" ETV
vector 20 p2p_3h_2s.H_2.vlarb "arbitrated VL" ETV
vector 21 p2p_3h_2s.SW_1.isw_port[1].vlarb "free credits on VL0" ETV
vector 22 p2p_3h_2s.SW_1.isw_port[1].vlarb "Binary coded VL's with data" ETV
vector 23 p2p_3h_2s.SW_1.isw_port[1].vlarb "arbitrated VL" ETV
vector 24 p2p_3h_2s.H_1.obuf "Queue Depth" ETV
vector 25 p2p_3h_2s.H_2.obuf "Queue Depth" ETV
vector 26 p2p_3h_2s.H_3.obuf "Queue Depth" ETV
vector 27 p2p_3h_2s.SW_1.isw_port[0].obuf "Queue Depth" ETV
vector 28 p2p_3h_2s.SW_1.isw_port[1].obuf "Queue Depth" ETV
vector 29 p2p_3h_2s.SW_2.isw_port[0].obuf "Queue Depth" ETV
vector 30 p2p_3h_2s.SW_2.isw_port[1].obuf "Queue Depth" ETV
vector 31 p2p_3h_2s.SW_2.isw_port[2].obuf "Queue Depth" ETV
vector 32 p2p_3h_2s.SW_2.isw_port[0].ibuf "static credits used" ETV
vector 33 p2p_3h_2s.SW_1.isw_port[1].ibuf "static credits used" ETV
vector 34 p2p_3h_2s.H_3.ibuf "static credits used" ETV
0	37	0.000000001	200
0	690	0.000001485429	200
0	758	0.000001526	200
0	1452	0.000001965429	200
0	1514	0.000002006	200
0	2206	0.000002445429	200
0	2268	0.000002486	200
0	2961	0.000002925429	200
0	3023	0.000002966	200
0	3720	0.000003405429	200
0	3782	0.000003446	200
0	4471	0.000003885429	200
0	4533	0.000003926	200
0	5231	0.000004365429	200
0	5293	0.000004406	200
0	5960	0.000004845429	200
0	6047	0.000004886	200
0	6711	0.000005325429	200
0	6773	0.000005366	200
0	7471	0.000005805429	200
0	7533	0.000005846	200
0	8224	0.000006285429	200
0	8271	0.000006326	200
0	9032	0.000007669429	200
0	9131	0.00000771	200
0	9792	0.000008149429	200
0	9859	0.00000819	200
0	10546	0.000008629429	200
0	10613	0.00000867	200
0	11303	0.000009109429	200
0	11370	0.00000915	200
0	12060	0.000009589429	200
0	12127	0.00000963	200
0	12811	0.000010069429	200
0	12878	0.00001011	200
0	13571	0.000010549429	200
0	13638	0.00001059	200
0	14325	0.000011029429	200
0	14392	0.00001107	200
0	15051	0.000011509429	200
0	15149	0.00001155	200
0	15811	0.000011989429	200
0	15878	0.00001203	200
0	16564	0.000012469429	200
0	16616	0.00001251	200
0	17401	0.000013853429	200
0	17469	0.000013894	200
0	18132	0.000014333429	200
0	18222	0.000014374	200
0	18886	0.000014813429	200
0	18973	0.000014854	200
0	19643	0.000015293429	200
0	19705	0.000015334	200
0	20400	0.000015773429	200
0	20462	0.000015814	200
0	21151	0.000016253429	200
0	21213	0.000016294	200
0	21911	0.000016733429	200
0	21973	0.000016774	200
0	22665	0.000017213429	200
0	22727	0.000017254	200
0	23422	0.000017693429	200
0	23484	0.000017734	200
0	24151	0.000018173429	200
0	24241	0.000018214	200
0	24904	0.000018653429	200
0	24977	0.000018694	200
0	25739	0.000020037429	200
0	25805	0.000020078	200
0	26496	0.000020517429	200
0	26563	0.000020558	200
0	27247	0.000020997429	200
0	27314	0.000021038	200
0	27979	0.000021477429	200
0	28074	0.000021518	200
0	28736	0.000021957429	200
0	28803	0.000021998	200
0	29487	0.000022437429	200
0	29554	0.000022478	200
0	30247	0.000022917429	200
0	30314	0.000022958	200
0	31001	0.000023397429	200
0	31068	0.000023438	200
0	31758	0.000023877429	200
0	31823	0.000023918	200
0	32515	0.000024357429	200
0	32582	0.000024398	200
0	33265	0.000024837429	200
0	33317	0.000024878	200
0	34074	0.000026221429	200
0	34141	0.000026262	200
0	34835	0.000026701429	200
0	34897	0.000026742	200
0	35586	0.000027181429	200
0	35648	0.000027222	200
0	36346	0.000027661429	200
0	36408	0.000027702	200
0	37075	0.000028141429	200
0	37162	0.000028182	200
0	37826	0.000028621429	200
0	37888	0.000028662	200
0	38586	0.000029101429	200
0	38648	0.000029142	200
0	39340	0.000029581429	200
0	39402	0.000029622	200
0	40095	0.000030061429	200
0	40157	0.000030102	200
0	40854	0.000030541429	200
0	40916	0.000030582	200
0	41604	0.000031021429	200
0	41651	0.000031062	200
0	42414	0.000032405429	200
0	42481	0.000032446	200
0	43171	0.000032885429	200
0	43238	0.000032926	200
0	43922	0.000033365429	200
0	43989	0.000033406	200
0	44682	0.000033845429	200
0	44749	0.000033886	200
0	45436	0.000034325429	200
0	45503	0.000034366	200
0	46162	0.000034805429	200
0	46260	0.000034846	200
0	46922	0.000035285429	200
0	46989	0.000035326	200
0	47676	0.000035765429	200
0	47743	0.000035806	200
0	48433	0.000036245429	200
0	48500	0.000036286	200
0	49190	0.000036725429	200
0	49257	0.000036766	200
0	49940	0.000037205429	200
0	49992	0.000037246	200
0	50755	0.000038589429	200
0	50817	0.00003863	200
0	51512	0.000039069429	200
0	51574	0.00003911	200
0	52263	0.000039549429	200
0	52325	0.00003959	200
0	53023	0.000040029429	200
0	53085	0.00004007	200
0	53777	0.000040509429	200
0	53839	0.00004055	200
0	54534	0.000040989429	200
0	54596	0.00004103	200
0	55263	0.000041469429	200
0	55353	0.00004151	200
0	56017	0.000041949429	200
0	56104	0.00004199	200
0	56774	0.000042429429	200
0	56836	0.00004247	200
0	57531	0.000042909429	200
0	57593	0.00004295	200
0	58281	0.000043389429	200
0	58328	0.00004343	200
0	59097	0.000044773429	200
0	59192	0.000044814	200
0	59854	0.000045253429	200
0	59921	0.000045294	200
0	60605	0.000045733429	200
0	60672	0.000045774	200
0	61365	0.000046213429	200
0	61432	0.000046254	200
0	62119	0.000046693429	200
0	62186	0.000046734	200
0	62876	0.000047173429	200
0	62941	0.000047214	200
0	63633	0.000047653429	200
0	63700	0.000047694	200
0	64384	0.000048133429	200
0	64451	0.000048174	200
0	65116	0.000048613429	200
0	65211	0.000048654	200
0	65873	0.000049093429	200
0	65940	0.000049134	200
0	66623	0.000049573429	200
0	66675	0.000049614	200
0	67468	0.000050957429	200
0	67530	0.000050998	200
0	68197	0.000051437429	200
0	68284	0.000051478	200
0	68948	0.000051917429	200
0	69010	0.000051958	200
0	69708	0.000052397429	200
0	69770	0.000052438	200
0	70462	0.000052877429	200
0	70524	0.000052918	200
0	71217	0.000053357429	200
0	71279	0.000053398	200
0	71976	0.000053837429	200
0	72038	0.000053878	200
0	72727	0.000054317429	200
0	72789	0.000054358	200
0	73487	0.000054797429	200
0	73549	0.000054838	200
0	74216	0.000055277429	200
0	74303	0.000055318	200
0	74966	0.000055757429	200
0	75013	0.000055798	200
0	75806	0.000057141429	200
0	75873	0.000057182	200
0	76560	0.000057621429	200
0	76627	0.000057662	200
0	77286	0.000058101429	200
0	77384	0.000058142	200
0	78046	0.000058581429	200
0	78113	0.000058622	200
0	78800	0.000059061429	200
0	78867	0.000059102	200
0	79557	0.000059541429	200
0	79624	0.000059582	200
0	80314	0.000060021429	200
0	80381	0.000060062	200
0	81065	0.000060501429	200
0	81132	0.000060542	200
0	81825	0.000060981429	200
0	81892	0.000061022	200
0	82579	0.000061461429	200
0	82646	0.000061502	200
0	83304	0.000061941429	200
0	83386	0.000061982	200
0	84146	0.000063325429	200
0	84213	0.000063366	200
0	84900	0.000063805429	200
0	84967	0.000063846	200
0	85657	0.000064285429	200
0	85724	0.000064326	200
0	86388	0.000064765429	200
0	86478	0.000064806	200
0	87142	0.000065245429	200
0	87229	0.000065286	200
0	87899	0.000065725429	200
0	87961	0.000065766	200
0	88656	0.000066205429	200
0	88718	0.000066246	200
0	89407	0.000066685429	200
0	89469	0.000066726	200
0	90167	0.000067165429	200
0	90229	0.000067206	200
0	90921	0.000067645429	200
0	90983	0.000067686	200
0	91677	0.000068125429	200
0	91724	0.000068166	200
0	92486	0.000069509429	200
0	92553	0.00006955	200
0	93240	0.000069989429	200
0	93307	0.00007003	200
0	93997	0.000070469429	200
0	94062	0.00007051	200
0	94754	0.000070949429	200
0	94821	0.00007099	200
0	95505	0.000071429429	200
0	95572	0.00007147	200
0	96237	0.000071909429	200
0	96332	0.00007195	200
0	96994	0.000072389429	200
0	97061	0.00007243	200
0	97745	0.000072869429	200
0	97812	0.00007291	200
0	98505	0.000073349429	200
0	98572	0.00007339	200
0	99259	0.000073829429	200
0	99326	0.00007387	200
0	100015	0.000074309429	200
0	100065	0.00007435	200
0	100826	0.000075693429	200
0	100893	0.000075734	200
0	101580	0.000076173429	200
0	101647	0.000076214	200
0	102335	0.000076653429	200
0	102402	0.000076694	200
0	103096	0.000077133429	200
0	103158	0.000077174	200
0	103847	0.000077613429	200
0	103909	0.000077654	200
0	104607	0.000078093429	200
0	104669	0.000078134	200
0	105336	0.000078573429	200
0	105423	0.000078614	200
0	106087	0.000079053429	200
0	106149	0.000079094	200
0	106847	0.000079533429	200
0	106909	0.000079574	200
0	107601	0.000080013429	200
0	107663	0.000080054	200
0	108355	0.000080493429	200
0	108402	0.000080534	200
0	109166	0.000081877429	200
0	109233	0.000081918	200
0	109920	0.000082357429	200
0	109987	0.000082398	200
0	110677	0.000082837429	200
0	110744	0.000082878	200
0	111434	0.000083317429	200
0	111501	0.000083358	200
0	112185	0.000083797429	200
0	112252	0.000083838	200
0	112945	0.000084277429	200
0	113012	0.000084318	200
0	113699	0.000084757429	200
0	113766	0.000084798	200
0	114425	0.000085237429	200
0	114523	0.000085278	200
0	115185	0.000085717429	200
0	115252	0.000085758	200
0	115939	0.000086197429	200
0	116006	0.000086238	200
0	116695	0.000086677429	200
0	116747	0.000086718	200
0	117509	0.000088061429	200
0	117605	0.000088102	200
0	118263	0.000088541429	200
0	118356	0.000088582	200
1	37	0.000000001	0
1	690	0.000001485429	0
1	758	0.000001526	0
1	1452	0.000001965429	0
1	1514	0.000002006	0
1	2206	0.000002445429	0
1	2268	0.000002486	0
1	2961	0.000002925429	0
1	3023	0.000002966	0
1	3720	0.000003405429	0
1	3782	0.000003446	0
1	4471	0.000003885429	0
1	4533	0.000003926	0
1	5231	0.000004365429	0
1	5293	0.000004406	0
1	5960	0.000004845429	0
1	6047	0.000004886	0
1	6711	0.000005325429	0
1	6773	0.000005366	0
1	7471	0.000005805429	0
1	7533	0.000005846	0
1	8224	0.000006285429	0
1	8271	0.000006326	0
1	9032	0.000007669429	0
1	9131	0.00000771	0
1	9792	0.000008149429	0
1	9859	0.00000819	0
1	10546	0.000008629429	0
1	10613	0.00000867	0
1	11303	0.000009109429	0
1	11370	0.00000915	0
1	12060	0.000009589429	0
1	12127	0.00000963	0
1	12811	0.000010069429	0
1	12878	0.00001011	0
1	13571	0.000010549429	0
1	13638	0.00001059	0
1	14325	0.000011029429	0
1	14392	0.00001107	0
1	15051	0.000011509429	0
1	15149	0.00001155	0
1	15811	0.000011989429	0
1	15878	0.00001203	0
1	16564	0.000012469429	0
1	16616	0.00001251	0
1	17401	0.000013853429	0
1	17469	0.000013894	0
1	18132	0.000014333429	0
1	18222	0.000014374	0
1	18886	0.000014813429	0
1	18973	0.000014854	0
1	19643	0.000015293429	0
1	19705	0.000015334	0
1	20400	0.000015773429	0
1	20462	0.000015814	0
1	21151	0.000016253429	0
1	21213	0.000016294	0
1	21911	0.000016733429	0
1	21973	0.000016774	0
1	22665	0.000017213429	0
1	22727	0.000017254	0
1	23422	0.000017693429	0
1	23484	0.000017734	0
1	24151	0.000018173429	0
1	24241	0.000018214	0
1	24904	0.000018653429	0
1	24977	0.000018694	0
1	25739	0.000020037429	0
1	25805	0.000020078	0
1	26496	0.000020517429	0
1	26563	0.000020558	0
1	27247	0.000020997429	0
1	27314	0.000021038	0
1	27979	0.000021477429	0
1	28074	0.000021518	0
1	28736	0.000021957429	0
1	28803	0.000021998	0
1	29487	0.000022437429	0
1	29554	0.000022478	0
1	30247	0.000022917429	0
1	30314	0.000022958	0
1	31001	0.000023397429	0
1	31068	0.000023438	0
1	31758	0.000023877429	0
1	31823	0.000023918	0
1	32515	0.000024357429	0
1	32582	0.000024398	0
1	33265	0.000024837429	0
1	33317	0.000024878	0
1	34074	0.000026221429	0
1	34141	0.000026262	0
1	34835	0.000026701429	0
1	34897	0.000026742	0
1	35586	0.000027181429	0
1	35648	0.000027222	0
1	36346	0.000027661429	0
1	36408	0.000027702	0
1	37075	0.000028141429	0
1	37162	0.000028182	0
1	37826	0.000028621429	0
1	37888	0.000028662	0
1	38586	0.000029101429	0
1	38648	0.000029142	0
1	39340	0.000029581429	0
1	39402	0.000029622	0
1	40095	0.000030061429	0
1	40157	0.000030102	0
1	40854	0.000030541429	0
1	40916	0.000030582	0
1	41604	0.000031021429	0
1	41651	0.000031062	0
1	42414	0.000032405429	0
1	42481	0.000032446	0
1	43171	0.000032885429	0
1	43238	0.000032926	0
1	43922	0.000033365429	0
1	43989	0.000033406	0
1	44682	0.000033845429	0
1	44749	0.000033886	0
1	45436	0.000034325429	0
1	45503	0.000034366	0
1	46162	0.000034805429	0
1	46260	0.000034846	0
1	46922	0.000035285429	0
1	46989	0.000035326	0
1	47676	0.000035765429	0
1	47743	0.000035806	0
1	48433	0.000036245429	0
1	48500	0.000036286	0
1	49190	0.000036725429	0
1	49257	0.000036766	0
1	49940	0.000037205429	0
1	49992	0.000037246	0
1	50755	0.000038589429	0
1	50817	0.00003863	0
1	51512	0.000039069429	0
1	51574	0.00003911	0
1	52263	0.000039549429	0
1	52325	0.00003959	0
1	53023	0.000040029429	0
1	53085	0.00004007	0
1	53777	0.000040509429	0
1	53839	0.00004055	0
1	54534	0.000040989429	0
1	54596	0.00004103	0
1	55263	0.000041469429	0
1	55353	0.00004151	0
1	56017	0.000041949429	0
1	56104	0.00004199	0
1	56774	0.000042429429	0
1	56836	0.00004247	0
1	57531	0.000042909429	0
1	57593	0.00004295	0
1	58281	0.000043389429	0
1	58328	0.00004343	0
1	59097	0.000044773429	0
1	59192	0.000044814	0
1	59854	0.000045253429	0
1	59921	0.000045294	0
1	60605	0.000045733429	0
1	60672	0.000045774	0
1	61365	0.000046213429	0
1	61432	0.000046254	0
1	62119	0.000046693429	0
1	62186	0.000046734	0
1	62876	0.000047173429	0
1	62941	0.000047214	0
1	63633	0.000047653429	0
1	63700	0.000047694	0
1	64384	0.000048133429	0
1	64451	0.000048174	0
1	65116	0.000048613429	0
1	65211	0.000048654	0
1	65873	0.000049093429	0
1	65940	0.000049134	0
1	66623	0.000049573429	0
1	66675	0.000049614	0
1	67468	0.000050957429	0
1	67530	0.000050998	0
1	68197	0.000051437429	0
1	68284	0.000051478	0
1	68948	0.000051917429	0
1	69010	0.000051958	0
1	69708	0.000052397429	0
1	69770	0.000052438	0
1	70462	0.000052877429	0
1	70524	0.000052918	0
1	71217	0.000053357429	0
1	71279	0.000053398	0
1	71976	0.000053837429	0
1	72038	0.000053878	0
1	72727	0.000054317429	0
1	72789	0.000054358	0
1	73487	0.000054797429	0
1	73549	0.000054838	0
1	74216	0.000055277429	0
1	74303	0.000055318	0
1	74966	0.000055757429	0
1	75013	0.000055798	0
1	75806	0.000057141429	0
1	75873	0.000057182	0
1	76560	0.000057621429	0
1	76627	0.000057662	0
1	77286	0.000058101429	0
1	77384	0.000058142	0
1	78046	0.000058581429	0
1	78113	0.000058622	0
1	78800	0.000059061429	0
1	78867	0.000059102	0
1	79557	0.000059541429	0
1	79624	0.000059582	0
1	80314	0.000060021429	0
1	80381	0.000060062	0
1	81065	0.000060501429	0
1	81132	0.000060542	0
1	81825	0.000060981429	0
1	81892	0.000061022	0
1	82579	0.000061461429	0
1	82646	0.000061502	0
1	83304	0.000061941429	0
1	83386	0.000061982	0
1	84146	0.000063325429	0
1	84213	0.000063366	0
1	84900	0.000063805429	0
1	84967	0.000063846	0
1	85657	0.000064285429	0
1	85724	0.000064326	0
1	86388	0.000064765429	0
1	86478	0.000064806	0
1	87142	0.000065245429	0
1	87229	0.000065286	0
1	87899	0.000065725429	0
1	87961	0.000065766	0
1	88656	0.000066205429	0
1	88718	0.000066246	0
1	89407	0.000066685429	0
1	89469	0.000066726	0
1	90167	0.000067165429	0
1	90229	0.000067206	0
1	90921	0.000067645429	0
1	90983	0.000067686	0
1	91677	0.000068125429	0
1	91724	0.000068166	0
1	92486	0.000069509429	0
1	92553	0.00006955	0
1	93240	0.000069989429	0
1	93307	0.00007003	0
1	93997	0.000070469429	0
1	94062	0.00007051	0
1	94754	0.000070949429	0
1	94821	0.00007099	0
1	95505	0.000071429429	0
1	95572	0.00007147	0
1	96237	0.000071909429	0
1	96332	0.00007195	0
1	96994	0.000072389429	0
1	97061	0.00007243	0
1	97745	0.000072869429	0
1	97812	0.00007291	0
1	98505	0.000073349429	0
1	98572	0.00007339	0
1	99259	0.000073829429	0
1	99326	0.00007387	0
1	100015	0.000074309429	0
1	100065	0.00007435	0
1	100826	0.000075693429	0
1	100893	0.000075734	0
1	101580	0.000076173429	0
1	101647	0.000076214	0
1	102335	0.000076653429	0
1	102402	0.000076694	0
1	103096	0.000077133429	0
1	103158	0.000077174	0
1	103847	0.000077613429	0
1	103909	0.000077654	0
1	104607	0.000078093429	0
1	104669	0.000078134	0
1	105336	0.000078573429	0
1	105423	0.000078614	0
1	106087	0.000079053429	0
1	106149	0.000079094	0
1	106847	0.000079533429	0
1	106909	0.000079574	0
1	107601	0.000080013429	0
1	107663	0.000080054	0
1	108355	0.000080493429	0
1	108402	0.000080534	0
1	109166	0.000081877429	0
1	109233	0.000081918	0
1	109920	0.000082357429	0
1	109987	0.000082398	0
1	110677	0.000082837429	0
1	110744	0.000082878	0
1	111434	0.000083317429	0
1	111501	0.000083358	0
1	112185	0.000083797429	0
1	112252	0.000083838	0
1	112945	0.000084277429	0
1	113012	0.000084318	0
1	113699	0.000084757429	0
1	113766	0.000084798	0
1	114425	0.000085237429	0
1	114523	0.000085278	0
1	115185	0.000085717429	0
1	115252	0.000085758	0
1	115939	0.000086197429	0
1	116006	0.000086238	0
1	116695	0.000086677429	0
1	116747	0.000086718	0
1	117509	0.000088061429	0
1	117605	0.000088102	0
1	118263	0.000088541429	0
1	118356	0.000088582	0
2	37	0.000000001	-1
2	690	0.000001485429	-1
2	758	0.000001526	-1
2	1452	0.000001965429	-1
2	1514	0.000002006	-1
2	2206	0.000002445429	-1
2	2268	0.000002486	-1
2	2961	0.000002925429	-1
2	3023	0.000002966	-1
2	3720	0.000003405429	-1
2	3782	0.000003446	-1
2	4471	0.000003885429	-1
2	4533	0.000003926	-1
2	5231	0.000004365429	-1
2	5293	0.000004406	-1
2	5960	0.000004845429	-1
2	6047	0.000004886	-1
2	6711	0.000005325429	-1
2	6773	0.000005366	-1
2	7471	0.000005805429	-1
2	7533	0.000005846	-1
2	8224	0.000006285429	-1
2	8271	0.000006326	-1
2	9032	0.000007669429	-1
2	9131	0.00000771	-1
2	9792	0.000008149429	-1
2	9859	0.00000819	-1
2	10546	0.000008629429	-1
2	10613	0.00000867	-1
2	11303	0.000009109429	-1
2	11370	0.00000915	-1
2	12060	0.000009589429	-1
2	12127	0.00000963	-1
2	12811	0.000010069429	-1
2	12878	0.00001011	-1
2	13571	0.000010549429	-1
2	13638	0.00001059	-1
2	14325	0.000011029429	-1
2	14392	0.00001107	-1
2	15051	0.000011509429	-1
2	15149	0.00001155	-1
2	15811	0.000011989429	-1
2	15878	0.00001203	-1
2	16564	0.000012469429	-1
2	16616	0.00001251	-1
2	17401	0.000013853429	-1
2	17469	0.000013894	-1
2	18132	0.000014333429	-1
2	18222	0.000014374	-1
2	18886	0.000014813429	-1
2	18973	0.000014854	-1
2	19643	0.000015293429	-1
2	19705	0.000015334	-1
2	20400	0.000015773429	-1
2	20462	0.000015814	-1
2	21151	0.000016253429	-1
2	21213	0.000016294	-1
2	21911	0.000016733429	-1
2	21973	0.000016774	-1
2	22665	0.000017213429	-1
2	22727	0.000017254	-1
2	23422	0.000017693429	-1
2	23484	0.000017734	-1
2	24151	0.000018173429	-1
2	24241	0.000018214	-1
2	24904	0.000018653429	-1
2	24977	0.000018694	-1
2	25739	0.000020037429	-1
2	25805	0.000020078	-1
2	26496	0.000020517429	-1
2	26563	0.000020558	-1
2	27247	0.000020997429	-1
2	27314	0.000021038	-1
2	27979	0.000021477429	-1
2	28074	0.000021518	-1
2	28736	0.000021957429	-1
2	28803	0.000021998	-1
2	29487	0.000022437429	-1
2	29554	0.000022478	-1
2	30247	0.000022917429	-1
2	30314	0.000022958	-1
2	31001	0.000023397429	-1
2	31068	0.000023438	-1
2	31758	0.000023877429	-1
2	31823	0.000023918	-1
2	32515	0.000024357429	-1
2	32582	0.000024398	-1
2	33265	0.000024837429	-1
2	33317	0.000024878	-1
2	34074	0.000026221429	-1
2	34141	0.000026262	-1
2	34835	0.000026701429	-1
2	34897	0.000026742	-1
2	35586	0.000027181429	-1
2	35648	0.000027222	-1
2	36346	0.000027661429	-1
2	36408	0.000027702	-1
2	37075	0.000028141429	-1
2	37162	0.000028182	-1
2	37826	0.000028621429	-1
2	37888	0.000028662	-1
2	38586	0.000029101429	-1
2	38648	0.000029142	-1
2	39340	0.000029581429	-1
2	39402	0.000029622	-1
2	40095	0.000030061429	-1
2	40157	0.000030102	-1
2	40854	0.000030541429	-1
2	40916	0.000030582	-1
2	41604	0.000031021429	-1
2	41651	0.000031062	-1
2	42414	0.000032405429	-1
2	42481	0.000032446	-1
2	43171	0.000032885429	-1
2	43238	0.000032926	-1
2	43922	0.000033365429	-1
2	43989	0.000033406	-1
2	44682	0.000033845429	-1
2	44749	0.000033886	-1
2	45436	0.000034325429	-1
2	45503	0.000034366	-1
2	46162	0.000034805429	-1
2	46260	0.000034846	-1
2	46922	0.000035285429	-1
2	46989	0.000035326	-1
2	47676	0.000035765429	-1
2	47743	0.000035806	-1
2	48433	0.000036245429	-1
2	48500	0.000036286	-1
2	49190	0.000036725429	-1
2	49257	0.000036766	-1
2	49940	0.000037205429	-1
2	49992	0.000037246	-1
2	50755	0.000038589429	-1
2	50817	0.00003863	-1
2	51512	0.000039069429	-1
2	51574	0.00003911	-1
2	52263	0.000039549429	-1
2	52325	0.00003959	-1
2	53023	0.000040029429	-1
2	53085	0.00004007	-1
2	53777	0.000040509429	-1
2	53839	0.00004055	-1
2	54534	0.000040989429	-1
2	54596	0.00004103	-1
2	55263	0.000041469429	-1
2	55353	0.00004151	-1
2	56017	0.000041949429	-1
2	56104	0.00004199	-1
2	56774	0.000042429429	-1
2	56836	0.00004247	-1
2	57531	0.000042909429	-1
2	57593	0.00004295	-1
2	58281	0.000043389429	-1
2	58328	0.00004343	-1
2	59097	0.000044773429	-1
2	59192	0.000044814	-1
2	59854	0.000045253429	-1
2	59921	0.000045294	-1
2	60605	0.000045733429	-1
2	60672	0.000045774	-1
2	61365	0.000046213429	-1
2	61432	0.000046254	-1
2	62119	0.000046693429	-1
2	62186	0.000046734	-1
2	62876	0.000047173429	-1
2	62941	0.000047214	-1
2	63633	0.000047653429	-1
2	63700	0.000047694	-1
2	64384	0.000048133429	-1
2	64451	0.000048174	-1
2	65116	0.000048613429	-1
2	65211	0.000048654	-1
2	65873	0.000049093429	-1
2	65940	0.000049134	-1
2	66623	0.000049573429	-1
2	66675	0.000049614	-1
2	67468	0.000050957429	-1
2	67530	0.000050998	-1
2	68197	0.000051437429	-1
2	68284	0.000051478	-1
2	68948	0.000051917429	-1
2	69010	0.000051958	-1
2	69708	0.000052397429	-1
2	69770	0.000052438	-1
2	70462	0.000052877429	-1
2	70524	0.000052918	-1
2	71217	0.000053357429	-1
2	71279	0.000053398	-1
2	71976	0.000053837429	-1
2	72038	0.000053878	-1
2	72727	0.000054317429	-1
2	72789	0.000054358	-1
2	73487	0.000054797429	-1
2	73549	0.000054838	-1
2	74216	0.000055277429	-1
2	74303	0.000055318	-1
2	74966	0.000055757429	-1
2	75013	0.000055798	-1
2	75806	0.000057141429	-1
2	75873	0.000057182	-1
2	76560	0.000057621429	-1
2	76627	0.000057662	-1
2	77286	0.000058101429	-1
2	77384	0.000058142	-1
2	78046	0.000058581429	-1
2	78113	0.000058622	-1
2	78800	0.000059061429	-1
2	78867	0.000059102	-1
2	79557	0.000059541429	-1
2	79624	0.000059582	-1
2	80314	0.000060021429	-1
2	80381	0.000060062	-1
2	81065	0.000060501429	-1
2	81132	0.000060542	-1
2	81825	0.000060981429	-1
2	81892	0.000061022	-1
2	82579	0.000061461429	-1
2	82646	0.000061502	-1
2	83304	0.000061941429	-1
2	83386	0.000061982	-1
2	84146	0.000063325429	-1
2	84213	0.000063366	-1
2	84900	0.000063805429	-1
2	84967	0.000063846	-1
2	85657	0.000064285429	-1
2	85724	0.000064326	-1
2	86388	0.000064765429	-1
2	86478	0.000064806	-1
2	87142	0.000065245429	-1
2	87229	0.000065286	-1
2	87899	0.000065725429	-1
2	87961	0.000065766	-1
2	88656	0.000066205429	-1
2	88718	0.000066246	-1
2	89407	0.000066685429	-1
2	89469	0.000066726	-1
2	90167	0.000067165429	-1
2	90229	0.000067206	-1
2	90921	0.000067645429	-1
2	90983	0.000067686	-1
2	91677	0.000068125429	-1
2	91724	0.000068166	-1
2	92486	0.000069509429	-1
2	92553	0.00006955	-1
2	93240	0.000069989429	-1
2	93307	0.00007003	-1
2	93997	0.000070469429	-1
2	94062	0.00007051	-1
2	94754	0.000070949429	-1
2	94821	0.00007099	-1
2	95505	0.000071429429	-1
2	95572	0.00007147	-1
2	96237	0.000071909429	-1
2	96332	0.00007195	-1
2	96994	0.000072389429	-1
2	97061	0.00007243	-1
2	97745	0.000072869429	-1
2	97812	0.00007291	-1
2	98505	0.000073349429	-1
2	98572	0.00007339	-1
2	99259	0.000073829429	-1
2	99326	0.00007387	-1
2	100015	0.000074309429	-1
2	100065	0.00007435	-1
2	100826	0.000075693429	-1
2	100893	0.000075734	-1
2	101580	0.000076173429	-1
2	101647	0.000076214	-1
2	102335	0.000076653429	-1
2	102402	0.000076694	-1
2	103096	0.000077133429	-1
2	103158	0.000077174	-1
2	103847	0.000077613429	-1
2	103909	0.000077654	-1
2	104607	0.000078093429	-1
2	104669	0.000078134	-1
2	105336	0.000078573429	-1
2	105423	0.000078614	-1
2	106087	0.000079053429	-1
2	106149	0.000079094	-1
2	106847	0.000079533429	-1
2	106909	0.000079574	-1
2	107601	0.000080013429	-1
2	107663	0.000080054	-1
2	108355	0.000080493429	-1
2	108402	0.000080534	-1
2	109166	0.000081877429	-1
2	109233	0.000081918	-1
2	109920	0.000082357429	-1
2	109987	0.000082398	-1
2	110677	0.000082837429	-1
2	110744	0.000082878	-1
2	111434	0.000083317429	-1
2	111501	0.000083358	-1
2	112185	0.000083797429	-1
2	112252	0.000083838	-1
2	112945	0.000084277429	-1
2	113012	0.000084318	-1
2	113699	0.000084757429	-1
2	113766	0.000084798	-1
2	114425	0.000085237429	-1
2	114523	0.000085278	-1
2	115185	0.000085717429	-1
2	115252	0.000085758	-1
2	115939	0.000086197429	-1
2	116006	0.000086238	-1
2	116695	0.000086677429	-1
2	116747	0.000086718	-1
2	117509	0.000088061429	-1
2	117605	0.000088102	-1
2	118263	0.000088541429	-1
2	118356	0.000088582	-1
3	39	0.000000001	200
3	759	0.000001526	200
3	1515	0.000002006	200
3	2269	0.000002486	200
3	3024	0.000002966	200
3	3783	0.000003446	200
3	4534	0.000003926	200
3	5294	0.000004406	200
3	6048	0.000004886	200
3	6774	0.000005366	200
3	7534	0.000005846	200
3	8272	0.000006326	200
3	9132	0.00000771	200
3	9860	0.00000819	200
3	10614	0.00000867	200
3	11371	0.00000915	200
3	12128	0.00000963	200
3	12879	0.00001011	200
3	13639	0.00001059	200
3	14393	0.00001107	200
3	15150	0.00001155	200
3	15879	0.00001203	200
3	16617	0.00001251	200
3	17470	0.000013894	200
3	18223	0.000014374	200
3	18974	0.000014854	200
3	19706	0.000015334	200
3	20463	0.000015814	200
3	21214	0.000016294	200
3	21974	0.000016774	200
3	22728	0.000017254	200
3	23485	0.000017734	200
3	24242	0.000018214	200
3	24978	0.000018694	200
3	25806	0.000020078	200
3	26564	0.000020558	200
3	27315	0.000021038	200
3	28075	0.000021518	200
3	28804	0.000021998	200
3	29555	0.000022478	200
3	30315	0.000022958	200
3	31069	0.000023438	200
3	31824	0.000023918	200
3	32583	0.000024398	200
3	33318	0.000024878	200
3	34142	0.000026262	200
3	34898	0.000026742	200
3	35649	0.000027222	200
3	36409	0.000027702	200
3	37163	0.000028182	200
3	37889	0.000028662	200
3	38649	0.000029142	200
3	39403	0.000029622	200
3	40158	0.000030102	200
3	40917	0.000030582	200
3	41652	0.000031062	200
3	42482	0.000032446	200
3	43239	0.000032926	200
3	43990	0.000033406	200
3	44750	0.000033886	200
3	45504	0.000034366	200
3	46261	0.000034846	200
3	46990	0.000035326	200
3	47744	0.000035806	200
3	48501	0.000036286	200
3	49258	0.000036766	200
3	49993	0.000037246	200
3	50818	0.00003863	200
3	51575	0.00003911	200
3	52326	0.00003959	200
3	53086	0.00004007	200
3	53840	0.00004055	200
3	54597	0.00004103	200
3	55354	0.00004151	200
3	56105	0.00004199	200
3	56837	0.00004247	200
3	57594	0.00004295	200
3	58329	0.00004343	200
3	59193	0.000044814	200
3	59922	0.000045294	200
3	60673	0.000045774	200
3	61433	0.000046254	200
3	62187	0.000046734	200
3	62942	0.000047214	200
3	63701	0.000047694	200
3	64452	0.000048174	200
3	65212	0.000048654	200
3	65941	0.000049134	200
3	66676	0.000049614	200
3	67531	0.000050998	200
3	68285	0.000051478	200
3	69011	0.000051958	200
3	69771	0.000052438	200
3	70525	0.000052918	200
3	71280	0.000053398	200
3	72039	0.000053878	200
3	72790	0.000054358	200
3	73550	0.000054838	200
3	74304	0.000055318	200
3	75014	0.000055798	200
3	75874	0.000057182	200
3	76628	0.000057662	200
3	77385	0.000058142	200
3	78114	0.000058622	200
3	78868	0.000059102	200
3	79625	0.000059582	200
3	80382	0.000060062	200
3	81133	0.000060542	200
3	81893	0.000061022	200
3	82647	0.000061502	200
3	83387	0.000061982	200
3	84214	0.000063366	200
3	84968	0.000063846	200
3	85725	0.000064326	200
3	86479	0.000064806	200
3	87230	0.000065286	200
3	87962	0.000065766	200
3	88719	0.000066246	200
3	89470	0.000066726	200
3	90230	0.000067206	200
3	90984	0.000067686	200
3	91725	0.000068166	200
3	92554	0.00006955	200
3	93308	0.00007003	200
3	94063	0.00007051	200
3	94822	0.00007099	200
3	95573	0.00007147	200
3	96333	0.00007195	200
3	97062	0.00007243	200
3	97813	0.00007291	200
3	98573	0.00007339	200
3	99327	0.00007387	200
3	100066	0.00007435	200
3	100894	0.000075734	200
3	101648	0.000076214	200
3	102403	0.000076694	200
3	103159	0.000077174	200
3	103910	0.000077654	200
3	104670	0.000078134	200
3	105424	0.000078614	200
3	106150	0.000079094	200
3	106910	0.000079574	200
3	107664	0.000080054	200
3	108403	0.000080534	200
3	109234	0.000081918	200
3	109988	0.000082398	200
3	110745	0.000082878	200
3	111502	0.000083358	200
3	112253	0.000083838	200
3	113013	0.000084318	200
3	113767	0.000084798	200
3	114524	0.000085278	200
3	115253	0.000085758	200
3	116007	0.000086238	200
3	116748	0.000086718	200
3	117606	0.000088102	200
3	118357	0.000088582	200
4	39	0.000000001	0
4	759	0.000001526	0
4	1515	0.000002006	0
4	2269	0.000002486	0
4	3024	0.000002966	0
4	3783	0.000003446	0
4	4534	0.000003926	0
4	5294	0.000004406	0
4	6048	0.000004886	0
4	6774	0.000005366	0
4	7534	0.000005846	0
4	8272	0.000006326	0
4	9132	0.00000771	0
4	9860	0.00000819	0
4	10614	0.00000867	0
4	11371	0.00000915	0
4	12128	0.00000963	0
4	12879	0.00001011	0
4	13639	0.00001059	0
4	14393	0.00001107	0
4	15150	0.00001155	0
4	15879	0.00001203	0
4	16617	0.00001251	0
4	17470	0.000013894	0
4	18223	0.000014374	0
4	18974	0.000014854	0
4	19706	0.000015334	0
4	20463	0.000015814	0
4	21214	0.000016294	0
4	21974	0.000016774	0
4	22728	0.000017254	0
4	23485	0.000017734	0
4	24242	0.000018214	0
4	24978	0.000018694	0
4	25806	0.000020078	0
4	26564	0.000020558	0
4	27315	0.000021038	0
4	28075	0.000021518	0
4	28804	0.000021998	0
4	29555	0.000022478	0
4	30315	0.000022958	0
4	31069	0.000023438	0
4	31824	0.000023918	0
4	32583	0.000024398	0
4	33318	0.000024878	0
4	34142	0.000026262	0
4	34898	0.000026742	0
4	35649	0.000027222	0
4	36409	0.000027702	0
4	37163	0.000028182	0
4	37889	0.000028662	0
4	38649	0.000029142	0
4	39403	0.000029622	0
4	40158	0.000030102	0
4	40917	0.000030582	0
4	41652	0.000031062	0
4	42482	0.000032446	0
4	43239	0.000032926	0
4	43990	0.000033406	0
4	44750	0.000033886	0
4	45504	0.000034366	0
4	46261	0.000034846	0
4	46990	0.000035326	0
4	47744	0.000035806	0
4	48501	0.000036286	0
4	49258	0.000036766	0
4	49993	0.000037246	0
4	50818	0.00003863	0
4	51575	0.00003911	0
4	52326	0.00003959	0
4	53086	0.00004007	0
4	53840	0.00004055	0
4	54597	0.00004103	0
4	55354	0.00004151	0
4	56105	0.00004199	0
4	56837	0.00004247	0
4	57594	0.00004295	0
4	58329	0.00004343	0
4	59193	0.000044814	0
4	59922	0.000045294	0
4	60673	0.000045774	0
4	61433	0.000046254	0
4	62187	0.000046734	0
4	62942	0.000047214	0
4	63701	0.000047694	0
4	64452	0.000048174	0
4	65212	0.000048654	0
4	65941	0.000049134	0
4	66676	0.000049614	0
4	67531	0.000050998	0
4	68285	0.000051478	0
4	69011	0.000051958	0
4	69771	0.000052438	0
4	70525	0.000052918	0
4	71280	0.000053398	0
4	72039	0.000053878	0
4	72790	0.000054358	0
4	73550	0.000054838	0
4	74304	0.000055318	0
4	75014	0.000055798	0
4	75874	0.000057182	0
4	76628	0.000057662	0
4	77385	0.000058142	0
4	78114	0.000058622	0
4	78868	0.000059102	0
4	79625	0.000059582	0
4	80382	0.000060062	0
4	81133	0.000060542	0
4	81893	0.000061022	0
4	82647	0.000061502	0
4	83387	0.000061982	0
4	84214	0.000063366	0
4	84968	0.000063846	0
4	85725	0.000064326	0
4	86479	0.000064806	0
4	87230	0.000065286	0
4	87962	0.000065766	0
4	88719	0.000066246	0
4	89470	0.000066726	0
4	90230	0.000067206	0
4	90984	0.000067686	0
4	91725	0.000068166	0
4	92554	0.00006955	0
4	93308	0.00007003	0
4	94063	0.00007051	0
4	94822	0.00007099	0
4	95573	0.00007147	0
4	96333	0.00007195	0
4	97062	0.00007243	0
4	97813	0.00007291	0
4	98573	0.00007339	0
4	99327	0.00007387	0
4	100066	0.00007435	0
4	100894	0.000075734	0
4	101648	0.000076214	0
4	102403	0.000076694	0
4	103159	0.000077174	0
4	103910	0.000077654	0
4	104670	0.000078134	0
4	105424	0.000078614	0
4	106150	0.000079094	0
4	106910	0.000079574	0
4	107664	0.000080054	0
4	108403	0.000080534	0
4	109234	0.000081918	0
4	109988	0.000082398	0
4	110745	0.000082878	0
4	111502	0.000083358	0
4	112253	0.000083838	0
4	113013	0.000084318	0
4	113767	0.000084798	0
4	114524	0.000085278	0
4	115253	0.000085758	0
4	116007	0.000086238	0
4	116748	0.000086718	0
4	117606	0.000088102	0
4	118357	0.000088582	0
5	39	0.000000001	-1
5	759	0.000001526	-1
5	1515	0.000002006	-1
5	2269	0.000002486	-1
5	3024	0.000002966	-1
5	3783	0.000003446	-1
5	4534	0.000003926	-1
5	5294	0.000004406	-1
5	6048	0.000004886	-1
5	6774	0.000005366	-1
5	7534	0.000005846	-1
5	8272	0.000006326	-1
5	9132	0.00000771	-1
5	9860	0.00000819	-1
5	10614	0.00000867	-1
5	11371	0.00000915	-1
5	12128	0.00000963	-1
5	12879	0.00001011	-1
5	13639	0.00001059	-1
5	14393	0.00001107	-1
5	15150	0.00001155	-1
5	15879	0.00001203	-1
5	16617	0.00001251	-1
5	17470	0.000013894	-1
5	18223	0.000014374	-1
5	18974	0.000014854	-1
5	19706	0.000015334	-1
5	20463	0.000015814	-1
5	21214	0.000016294	-1
5	21974	0.000016774	-1
5	22728	0.000017254	-1
5	23485	0.000017734	-1
5	24242	0.000018214	-1
5	24978	0.000018694	-1
5	25806	0.000020078	-1
5	26564	0.000020558	-1
5	27315	0.000021038	-1
5	28075	0.000021518	-1
5	28804	0.000021998	-1
5	29555	0.000022478	-1
5	30315	0.000022958	-1
5	31069	0.000023438	-1
5	31824	0.000023918	-1
5	32583	0.000024398	-1
5	33318	0.000024878	-1
5	34142	0.000026262	-1
5	34898	0.000026742	-1
5	35649	0.000027222	-1
5	36409	0.000027702	-1
5	37163	0.000028182	-1
5	37889	0.000028662	-1
5	38649	0.000029142	-1
5	39403	0.000029622	-1
5	40158	0.000030102	-1
5	40917	0.000030582	-1
5	41652	0.000031062	-1
5	42482	0.000032446	-1
5	43239	0.000032926	-1
5	43990	0.000033406	-1
5	44750	0.000033886	-1
5	45504	0.000034366	-1
5	46261	0.000034846	-1
5	46990	0.000035326	-1
5	47744	0.000035806	-1
5	48501	0.000036286	-1
5	49258	0.000036766	-1
5	49993	0.000037246	-1
5	50818	0.00003863	-1
5	51575	0.00003911	-1
5	52326	0.00003959	-1
5	53086	0.00004007	-1
5	53840	0.00004055	-1
5	54597	0.00004103	-1
5	55354	0.00004151	-1
5	56105	0.00004199	-1
5	56837	0.00004247	-1
5	57594	0.00004295	-1
5	58329	0.00004343	-1
5	59193	0.000044814	-1
5	59922	0.000045294	-1
5	60673	0.000045774	-1
5	61433	0.000046254	-1
5	62187	0.000046734	-1
5	62942	0.000047214	-1
5	63701	0.000047694	-1
5	64452	0.000048174	-1
5	65212	0.000048654	-1
5	65941	0.000049134	-1
5	66676	0.000049614	-1
5	67531	0.000050998	-1
5	68285	0.000051478	-1
5	69011	0.000051958	-1
5	69771	0.000052438	-1
5	70525	0.000052918	-1
5	71280	0.000053398	-1
5	72039	0.000053878	-1
5	72790	0.000054358	-1
5	73550	0.000054838	-1
5	74304	0.000055318	-1
5	75014	0.000055798	-1
5	75874	0.000057182	-1
5	76628	0.000057662	-1
5	77385	0.000058142	-1
5	78114	0.000058622	-1
5	78868	0.000059102	-1
5	79625	0.000059582	-1
5	80382	0.000060062	-1
5	81133	0.000060542	-1
5	81893	0.000061022	-1
5	82647	0.000061502	-1
5	83387	0.000061982	-1
5	84214	0.000063366	-1
5	84968	0.000063846	-1
5	85725	0.000064326	-1
5	86479	0.000064806	-1
5	87230	0.000065286	-1
5	87962	0.000065766	-1
5	88719	0.000066246	-1
5	89470	0.000066726	-1
5	90230	0.000067206	-1
5	90984	0.000067686	-1
5	91725	0.000068166	-1
5	92554	0.00006955	-1
5	93308	0.00007003	-1
5	94063	0.00007051	-1
5	94822	0.00007099	-1
5	95573	0.00007147	-1
5	96333	0.00007195	-1
5	97062	0.00007243	-1
5	97813	0.00007291	-1
5	98573	0.00007339	-1
5	99327	0.00007387	-1
5	100066	0.00007435	-1
5	100894	0.000075734	-1
5	101648	0.000076214	-1
5	102403	0.000076694	-1
5	103159	0.000077174	-1
5	103910	0.000077654	-1
5	104670	0.000078134	-1
5	105424	0.000078614	-1
5	106150	0.000079094	-1
5	106910	0.000079574	-1
5	107664	0.000080054	-1
5	108403	0.000080534	-1
5	109234	0.000081918	-1
5	109988	0.000082398	-1
5	110745	0.000082878	-1
5	111502	0.000083358	-1
5	112253	0.000083838	-1
5	113013	0.000084318	-1
5	113767	0.000084798	-1
5	114524	0.000085278	-1
5	115253	0.000085758	-1
5	116007	0.000086238	-1
5	116748	0.000086718	-1
5	117606	0.000088102	-1
5	118357	0.000088582	-1
6	41	0.000000001	200
6	228	0.000001166	200
6	244	0.000001176667	199
6	248	0.000001186	199
6	264	0.000001196667	198
6	268	0.000001206	198
6	288	0.000001216667	197
6	294	0.000001226	197
6	316	0.000001236667	196
6	322	0.000001246	196
6	345	0.000001256667	195
6	353	0.000001266	195
6	373	0.000001276667	194
6	394	0.000001281	198
6	406	0.000001286	198
6	427	0.000001296667	197
6	433	0.000001306	197
6	455	0.000001316667	196
6	461	0.000001326	196
6	484	0.000001336667	195
6	492	0.000001346	195
6	512	0.000001356667	194
6	520	0.000001366	194
6	541	0.000001376667	193
6	547	0.000001386	193
6	569	0.000001396667	192
6	575	0.000001406	192
6	598	0.000001416667	191
6	606	0.000001426	191
6	626	0.000001436667	190
6	634	0.000001446	190
6	655	0.000001456667	189
6	661	0.000001466	189
6	683	0.000001476667	188
6	692	0.000001486	188
6	716	0.000001496667	187
6	724	0.000001506	187
6	744	0.000001516667	186
6	752	0.000001526	186
6	777	0.000001536667	185
6	794	0.000001537	197
6	807	0.000001546	197
6	835	0.000001556667	196
6	841	0.000001566	196
6	864	0.000001576667	195
6	876	0.000001587	195
6	896	0.000001597667	194
6	904	0.000001606	194
6	924	0.000001616667	193
6	933	0.000001626	193
6	948	0.000001636667	192
6	959	0.000001646	192
6	984	0.000001656667	191
6	989	0.000001666	191
6	1012	0.000001676667	190
6	1027	0.000001687	190
6	1045	0.000001697667	189
6	1054	0.000001706	189
6	1073	0.000001716667	188
6	1082	0.000001726	188
6	1099	0.000001736667	187
6	1107	0.000001746	187
6	1131	0.000001756667	186
6	1136	0.000001766	186
6	1159	0.000001776667	185
6	1168	0.000001786	185
6	1215	0.000001796667	197
6	1224	0.000001806	197
6	1244	0.000001816667	196
6	1252	0.000001826	196
6	1273	0.000001836667	195
6	1278	0.000001846	195
6	1301	0.000001856667	194
6	1307	0.000001866	194
6	1329	0.000001876667	193
6	1338	0.000001886	193
6	1358	0.000001896667	192
6	1366	0.000001906	192
6	1387	0.000001916667	191
6	1392	0.000001926	191
6	1415	0.000001936667	190
6	1421	0.000001946	190
6	1443	0.000001956667	189
6	1455	0.000001966	189
6	1476	0.000001976667	188
6	1484	0.000001986	188
6	1505	0.000001996667	187
6	1510	0.000002006	187
6	1536	0.000002016667	186
6	1542	0.000002026	186
6	1564	0.000002036667	185
6	1573	0.000002046	185
6	1621	0.000002056667	197
6	1632	0.000002066	197
6	1654	0.000002076667	196
6	1659	0.000002086	196
6	1682	0.000002096667	195
6	1688	0.000002106	195
6	1712	0.000002116667	194
6	1721	0.000002126	194
6	1741	0.000002136667	193
6	1749	0.000002146	193
6	1770	0.000002156667	192
6	1778	0.000002166	192
6	1802	0.000002176667	191
6	1808	0.000002186	191
6	1830	0.000002196667	190
6	1839	0.000002206	190
6	1859	0.000002216667	189
6	1867	0.000002226	189
6	1888	0.000002236667	188
6	1893	0.000002246	188
6	1916	0.000002256667	187
6	1922	0.000002266	187
6	1944	0.000002276667	186
6	1953	0.000002286	186
6	1973	0.000002296667	185
6	1993	0.000002305	198
6	2003	0.000002306	198
6	2027	0.000002316667	197
6	2032	0.000002326	197
6	2055	0.000002336667	196
6	2061	0.000002346	196
6	2083	0.000002356667	195
6	2092	0.000002366	195
6	2112	0.000002376667	194
6	2120	0.000002386	194
6	2141	0.000002396667	193
6	2146	0.000002406	193
6	2169	0.000002416667	192
6	2175	0.000002426	192
6	2197	0.000002436667	191
6	2209	0.000002446	191
6	2230	0.000002456667	190
6	2238	0.000002466	190
6	2259	0.000002476667	189
6	2264	0.000002486	189
6	2290	0.000002496667	188
6	2296	0.000002506	188
6	2318	0.000002516667	187
6	2327	0.000002526	187
6	2347	0.000002536667	186
6	2358	0.000002546	186
6	2380	0.000002556667	185
6	2397	0.000002561	197
6	2410	0.000002566	197
6	2433	0.000002576667	196
6	2439	0.000002586	196
6	2463	0.000002596667	195
6	2472	0.000002606	195
6	2492	0.000002616667	194
6	2500	0.000002626	194
6	2521	0.000002636667	193
6	2529	0.000002646	193
6	2553	0.000002656667	192
6	2559	0.000002666	192
6	2581	0.000002676667	191
6	2590	0.000002686	191
6	2610	0.000002696667	190
6	2618	0.000002706	190
6	2639	0.000002716667	189
6	2644	0.000002726	189
6	2667	0.000002736667	188
6	2673	0.000002746	188
6	2695	0.000002756667	187
6	2704	0.000002766	187
6	2724	0.000002776667	186
6	2732	0.000002786	186
6	2753	0.000002796667	185
6	2758	0.000002806	185
6	2782	0.000002816667	184
6	2798	0.000002817	197
6	2812	0.000002826	197
6	2840	0.000002836667	196
6	2849	0.000002846	196
6	2869	0.000002856667	195
6	2877	0.000002867	195
6	2898	0.000002877667	194
6	2903	0.000002886	194
6	2926	0.000002896667	193
6	2932	0.000002906	193
6	2947	0.000002916667	192
6	2964	0.000002926	192
6	2987	0.000002936667	191
6	2995	0.000002946	191
6	3016	0.000002956667	190
6	3026	0.000002967	190
6	3047	0.000002977667	189
6	3053	0.000002986	189
6	3075	0.000002996667	188
6	3084	0.000003006	188
6	3100	0.000003016667	187
6	3114	0.000003026	187
6	3137	0.000003036667	186
6	3142	0.000003046	186
6	3165	0.000003056667	185
6	3171	0.000003066	185
6	3223	0.000003076667	197
6	3232	0.000003086	197
6	3252	0.000003096667	196
6	3260	0.000003106	196
6	3281	0.000003116667	195
6	3289	0.000003126	195
6	3313	0.000003136667	194
6	3319	0.000003146	194
6	3341	0.000003156667	193
6	3350	0.000003166	193
6	3370	0.000003176667	192
6	3378	0.000003186	192
6	3399	0.000003196667	191
6	3404	0.000003206	191
6	3427	0.000003216667	190
6	3433	0.000003226	190
6	3455	0.000003236667	189
6	3464	0.000003246	189
6	3484	0.000003256667	188
6	3492	0.000003266	188
6	3513	0.000003276667	187
6	3518	0.000003286	187
6	3541	0.000003296667	186
6	3547	0.000003306	186
6	3569	0.000003316667	185
6	3578	0.000003326	185
6	3626	0.000003336667	197
6	3634	0.000003346	197
6	3655	0.000003356667	196
6	3660	0.000003366	196
6	3683	0.000003376667	195
6	3689	0.000003386	195
6	3711	0.000003396667	194
6	3723	0.000003406	194
6	3744	0.000003416667	193
6	3752	0.000003426	193
6	3773	0.000003436667	192
6	3778	0.000003446	192
6	3804	0.000003456667	191
6	3810	0.000003466	191
6	3832	0.000003476667	190
6	3841	0.000003486	190
6	3861	0.000003496667	189
6	3872	0.000003506	189
6	3894	0.000003516667	188
6	3899	0.000003526	188
6	3922	0.000003536667	187
6	3928	0.000003546	187
6	3952	0.000003556667	186
6	3961	0.000003566	186
6	3981	0.000003576667	185
6	4001	0.000003585	198
6	4011	0.000003586	198
6	4035	0.000003596667	197
6	4043	0.000003606	197
6	4067	0.000003616667	196
6	4073	0.000003626	196
6	4095	0.000003636667	195
6	4104	0.000003646	195
6	4124	0.000003656667	194
6	4132	0.000003666	194
6	4153	0.000003676667	193
6	4158	0.000003686	193
6	4181	0.000003696667	192
6	4187	0.000003706	192
6	4209	0.000003716667	191
6	4218	0.000003726	191
6	4238	0.000003736667	190
6	4246	0.000003746	190
6	4267	0.000003756667	189
6	4272	0.000003766	189
6	4295	0.000003776667	188
6	4301	0.000003786	188
6	4323	0.000003796667	187
6	4332	0.000003806	187
6	4352	0.000003816667	186
6	4360	0.000003826	186
6	4381	0.000003836667	185
6	4398	0.000003841	197
6	4411	0.000003846	197
6	4434	0.000003856667	196
6	4440	0.000003866	196
6	4462	0.000003876667	195
6	4474	0.000003886	195
6	4495	0.000003896667	194
6	4503	0.000003906	194
6	4524	0.000003916667	193
6	4529	0.000003926	193
6	4555	0.000003936667	192
6	4561	0.000003946	192
6	4583	0.000003956667	191
6	4592	0.000003966	191
6	4612	0.000003976667	190
6	4623	0.000003986	190
6	4645	0.000003996667	189
6	4650	0.000004006	189
6	4673	0.000004016667	188
6	4679	0.000004026	188
6	4703	0.000004036667	187
6	4712	0.000004046	187
6	4732	0.000004056667	186
6	4740	0.000004066	186
6	4761	0.000004076667	185
6	4769	0.000004086	185
6	4794	0.000004096667	184
6	4810	0.000004097	197
6	4824	0.000004106	197
6	4852	0.000004116667	196
6	4861	0.000004126	196
6	4881	0.000004136667	195
6	4889	0.000004147	195
6	4910	0.000004157667	194
6	4915	0.000004166	194
6	4938	0.000004176667	193
6	4944	0.000004186	193
6	4959	0.000004196667	192
6	4973	0.000004206	192
6	4995	0.000004216667	191
6	5003	0.000004226	191
6	5024	0.000004236667	190
6	5031	0.000004247	190
6	5052	0.000004257667	189
6	5058	0.000004266	189
6	5080	0.000004276667	188
6	5089	0.000004286	188
6	5105	0.000004296667	187
6	5116	0.000004306	187
6	5138	0.000004316667	186
6	5143	0.000004326	186
6	5166	0.000004336667	185
6	5172	0.000004346	185
6	5222	0.000004356667	197
6	5234	0.000004366	197
6	5255	0.000004376667	196
6	5263	0.000004386	196
6	5284	0.000004396667	195
6	5289	0.000004406	195
6	5315	0.000004416667	194
6	5321	0.000004426	194
6	5343	0.000004436667	193
6	5352	0.000004446	193
6	5372	0.000004456667	192
6	5383	0.000004466	192
6	5405	0.000004476667	191
6	5410	0.000004486	191
6	5433	0.000004496667	190
6	5439	0.000004506	190
6	5463	0.000004516667	189
6	5472	0.000004526	189
6	5492	0.000004536667	188
6	5500	0.000004546	188
6	5521	0.000004556667	187
6	5529	0.000004566	187
6	5553	0.000004576667	186
6	5559	0.000004586	186
6	5581	0.000004596667	185
6	5590	0.000004606	185
6	5638	0.000004616667	197
6	5646	0.000004626	197
6	5667	0.000004636667	196
6	5672	0.000004646	196
6	5695	0.000004656667	195
6	5701	0.000004666	195
6	5723	0.000004676667	194
6	5732	0.000004686	194
6	5752	0.000004696667	193
6	5760	0.000004706	193
6	5781	0.000004716667	192
6	5786	0.000004726	192
6	5809	0.000004736667	191
6	5815	0.000004746	191
6	5837	0.000004756667	190
6	5846	0.000004766	190
6	5866	0.000004776667	189
6	5874	0.000004786	189
6	5895	0.000004796667	188
6	5900	0.000004806	188
6	5923	0.000004816667	187
6	5929	0.000004826	187
6	5951	0.000004836667	186
6	5963	0.000004846	186
6	5984	0.000004856667	185
6	6004	0.000004865	198
6	6014	0.000004866	198
6	6038	0.000004876667	197
6	6043	0.000004886	197
6	6069	0.000004896667	196
6	6075	0.000004906	196
6	6097	0.000004916667	195
6	6106	0.000004926	195
6	6126	0.000004936667	194
6	6137	0.000004946	194
6	6159	0.000004956667	193
6	6164	0.000004966	193
6	6187	0.000004976667	192
6	6193	0.000004986	192
6	6217	0.000004996667	191
6	6226	0.000005006	191
6	6246	0.000005016667	190
6	6254	0.000005026	190
6	6275	0.000005036667	189
6	6283	0.000005046	189
6	6307	0.000005056667	188
6	6313	0.000005066	188
6	6335	0.000005076667	187
6	6344	0.000005086	187
6	6364	0.000005096667	186
6	6372	0.000005106	186
6	6393	0.000005116667	185
6	6410	0.000005121	197
6	6423	0.000005126	197
6	6446	0.000005136667	196
6	6452	0.000005146	196
6	6474	0.000005156667	195
6	6483	0.000005166	195
6	6503	0.000005176667	194
6	6511	0.000005186	194
6	6532	0.000005196667	193
6	6537	0.000005206	193
6	6560	0.000005216667	192
6	6566	0.000005226	192
6	6588	0.000005236667	191
6	6597	0.000005246	191
6	6617	0.000005256667	190
6	6625	0.000005266	190
6	6646	0.000005276667	189
6	6651	0.000005286	189
6	6674	0.000005296667	188
6	6680	0.000005306	188
6	6702	0.000005316667	187
6	6714	0.000005326	187
6	6735	0.000005336667	186
6	6743	0.000005346	186
6	6764	0.000005356667	185
6	6769	0.000005366	185
6	6796	0.000005376667	184
6	6812	0.000005377	197
6	6826	0.000005386	197
6	6854	0.000005396667	196
6	6863	0.000005406	196
6	6883	0.000005416667	195
6	6895	0.000005427	195
6	6916	0.000005437667	194
6	6921	0.000005446	194
6	6944	0.000005456667	193
6	6950	0.000005466	193
6	6967	0.000005476667	192
6	6981	0.000005486	192
6	7003	0.000005496667	191
6	7011	0.000005506	191
6	7032	0.000005516667	190
6	7043	0.000005527	190
6	7064	0.000005537667	189
6	7070	0.000005546	189
6	7092	0.000005556667	188
6	7101	0.000005566	188
6	7117	0.000005576667	187
6	7128	0.000005586	187
6	7150	0.000005596667	186
6	7155	0.000005606	186
6	7178	0.000005616667	185
6	7184	0.000005626	185
6	7234	0.000005636667	197
6	7243	0.000005646	197
6	7263	0.000005656667	196
6	7271	0.000005666	196
6	7292	0.000005676667	195
6	7297	0.000005686	195
6	7320	0.000005696667	194
6	7326	0.000005706	194
6	7348	0.000005716667	193
6	7357	0.000005726	193
6	7377	0.000005736667	192
6	7385	0.000005746	192
6	7406	0.000005756667	191
6	7411	0.000005766	191
6	7434	0.000005776667	190
6	7440	0.000005786	190
6	7462	0.000005796667	189
6	7474	0.000005806	189
6	7495	0.000005816667	188
6	7503	0.000005826	188
6	7524	0.000005836667	187
6	7529	0.000005846	187
6	7555	0.000005856667	186
6	7561	0.000005866	186
6	7583	0.000005876667	185
6	7592	0.000005886	185
6	7640	0.000005896667	197
6	7651	0.000005906	197
6	7673	0.000005916667	196
6	7678	0.000005926	196
6	7701	0.000005936667	195
6	7707	0.000005946	195
6	7731	0.000005956667	194
6	7740	0.000005966	194
6	7760	0.000005976667	193
6	7768	0.000005986	193
6	7789	0.000005996667	192
6	7797	0.000006006	192
6	7821	0.000006016667	191
6	7827	0.000006026	191
6	7849	0.000006036667	190
6	7858	0.000006046	190
6	7878	0.000006056667	189
6	7886	0.000006066	189
6	7907	0.000006076667	188
6	7912	0.000006086	188
6	7935	0.000006096667	187
6	7941	0.000006106	187
6	7963	0.000006116667	186
6	7972	0.000006126	186
6	7992	0.000006136667	185
6	8012	0.000006145	198
6	8022	0.000006146	198
6	8046	0.000006156667	197
6	8051	0.000006166	197
6	8074	0.000006176667	196
6	8081	0.000006186	196
6	8103	0.000006196667	195
6	8112	0.000006206	195
6	8131	0.000006216667	194
6	8139	0.000006226	194
6	8160	0.000006236667	193
6	8165	0.000006246	193
6	8188	0.000006256667	192
6	8193	0.000006266	192
6	8216	0.000006276667	191
6	8227	0.000006286	191
6	8242	0.000006296667	190
6	8249	0.000006306	190
6	8263	0.000006316667	189
6	8267	0.000006326	189
6	8286	0.000006336667	188
6	8289	0.000006346	188
6	8302	0.000006356667	187
6	8308	0.000006366	187
6	8318	0.000006376667	186
6	8327	0.000006386	186
6	8336	0.000006396667	185
6	8355	0.000006401	197
6	8365	0.000006406	197
6	8375	0.000006416667	196
6	8377	0.000006426	196
6	8389	0.000006436667	195
6	8434	0.000006657	200
6	8570	0.00000735	200
6	8586	0.000007360667	199
6	8590	0.00000737	199
6	8606	0.000007380667	198
6	8610	0.00000739	198
6	8630	0.000007400667	197
6	8636	0.00000741	197
6	8658	0.000007420667	196
6	8677	0.000007425	197
6	8689	0.00000743	197
6	8712	0.000007440667	196
6	8720	0.00000745	196
6	8740	0.000007460667	195
6	8748	0.00000747	195
6	8769	0.000007480667	194
6	8775	0.00000749	194
6	8797	0.000007500667	193
6	8803	0.00000751	193
6	8826	0.000007520667	192
6	8834	0.00000753	192
6	8854	0.000007540667	191
6	8862	0.00000755	191
6	8883	0.000007560667	190
6	8889	0.00000757	190
6	8911	0.000007580667	189
6	8917	0.00000759	189
6	8940	0.000007600667	188
6	8948	0.00000761	188
6	8968	0.000007620667	187
6	8976	0.00000763	187
6	8997	0.000007640667	186
6	9003	0.00000765	186
6	9025	0.000007660667	185
6	9034	0.00000767	185
6	9059	0.000007680667	184
6	9076	0.000007681	197
6	9091	0.00000769	197
6	9117	0.000007700667	196
6	9125	0.00000771	196
6	9149	0.000007720667	195
6	9155	0.000007731	195
6	9177	0.000007741667	194
6	9183	0.00000775	194
6	9206	0.000007760667	193
6	9217	0.00000777	193
6	9231	0.000007780667	192
6	9244	0.00000779	192
6	9267	0.000007800667	191
6	9273	0.00000781	191
6	9297	0.000007820667	190
6	9306	0.000007831	190
6	9327	0.000007841667	189
6	9335	0.00000785	189
6	9355	0.000007860667	188
6	9366	0.00000787	188
6	9384	0.000007880667	187
6	9393	0.00000789	187
6	9416	0.000007900667	186
6	9422	0.00000791	186
6	9445	0.000007920667	185
6	9453	0.00000793	185
6	9501	0.000007940667	197
6	9509	0.00000795	197
6	9529	0.000007960667	196
6	9538	0.00000797	196
6	9558	0.000007980667	195
6	9564	0.00000799	195
6	9587	0.000008000667	194
6	9592	0.00000801	194
6	9615	0.000008020667	193
6	9623	0.00000803	193
6	9643	0.000008040667	192
6	9652	0.00000805	192
6	9672	0.000008060667	191
6	9678	0.00000807	191
6	9701	0.000008080667	190
6	9706	0.00000809	190
6	9729	0.000008100667	189
6	9737	0.00000811	189
6	9757	0.000008120667	188
6	9766	0.00000813	188
6	9786	0.000008140667	187
6	9795	0.00000815	187
6	9819	0.000008160667	186
6	9824	0.00000817	186
6	9847	0.000008180667	185
6	9855	0.00000819	185
6	9906	0.000008200667	197
6	9915	0.00000821	197
6	9935	0.000008220667	196
6	9941	0.00000823	196
6	9964	0.000008240667	195
6	9972	0.00000825	195
6	9996	0.000008260667	194
6	10004	0.00000827	194
6	10024	0.000008280667	193
6	10033	0.00000829	193
6	10055	0.000008300667	192
6	10061	0.00000831	192
6	10084	0.000008320667	191
6	10089	0.00000833	191
6	10112	0.000008340667	190
6	10123	0.00000835	190
6	10144	0.000008360667	189
6	10153	0.00000837	189
6	10173	0.000008380667	188
6	10179	0.00000839	188
6	10202	0.000008400667	187
6	10207	0.00000841	187
6	10230	0.000008420667	186
6	10238	0.00000843	186
6	10258	0.000008440667	185
6	10279	0.000008449	198
6	10289	0.00000845	198
6	10312	0.000008460667	197
6	10318	0.00000847	197
6	10341	0.000008480667	196
6	10346	0.00000849	196
6	10369	0.000008500667	195
6	10377	0.00000851	195
6	10397	0.000008520667	194
6	10406	0.00000853	194
6	10426	0.000008540667	193
6	10432	0.00000855	193
6	10455	0.000008560667	192
6	10460	0.00000857	192
6	10483	0.000008580667	191
6	10491	0.00000859	191
6	10511	0.000008600667	190
6	10520	0.00000861	190
6	10540	0.000008620667	189
6	10549	0.00000863	189
6	10573	0.000008640667	188
6	10578	0.00000865	188
6	10601	0.000008660667	187
6	10609	0.00000867	187
6	10632	0.000008680667	186
6	10641	0.00000869	186
6	10661	0.000008700667	185
6	10679	0.000008705	197
6	10692	0.00000871	197
6	10715	0.000008720667	196
6	10723	0.00000873	196
6	10747	0.000008740667	195
6	10755	0.00000875	195
6	10775	0.000008760667	194
6	10784	0.00000877	194
6	10806	0.000008780667	193
6	10812	0.00000879	193
6	10835	0.000008800667	192
6	10840	0.00000881	192
6	10863	0.000008820667	191
6	10874	0.00000883	191
6	10895	0.000008840667	190
6	10904	0.00000885	190
6	10924	0.000008860667	189
6	10930	0.00000887	189
6	10953	0.000008880667	188
6	10958	0.00000889	188
6	10981	0.000008900667	187
6	10989	0.00000891	187
6	11009	0.000008920667	186
6	11018	0.00000893	186
6	11038	0.000008940667	185
6	11044	0.00000895	185
6	11068	0.000008960667	184
6	11084	0.000008961	197
6	11097	0.00000897	197
6	11126	0.000008980667	196
6	11134	0.00000899	196
6	11154	0.000009000667	195
6	11163	0.000009011	195
6	11183	0.000009021667	194
6	11189	0.00000903	194
6	11212	0.000009040667	193
6	11217	0.00000905	193
6	11233	0.000009060667	192
6	11246	0.00000907	192
6	11268	0.000009080667	191
6	11277	0.00000909	191
6	11297	0.000009100667	190
6	11309	0.000009111	190
6	11330	0.000009121667	189
6	11335	0.00000913	189
6	11358	0.000009140667	188
6	11366	0.00000915	188
6	11385	0.000009160667	187
6	11397	0.00000917	187
6	11418	0.000009180667	186
6	11424	0.00000919	186
6	11447	0.000009200667	185
6	11455	0.00000921	185
6	11507	0.000009220667	197
6	11515	0.00000923	197
6	11535	0.000009240667	196
6	11544	0.00000925	196
6	11566	0.000009260667	195
6	11572	0.00000927	195
6	11595	0.000009280667	194
6	11600	0.00000929	194
6	11623	0.000009300667	193
6	11634	0.00000931	193
6	11655	0.000009320667	192
6	11664	0.00000933	192
6	11684	0.000009340667	191
6	11690	0.00000935	191
6	11713	0.000009360667	190
6	11718	0.00000937	190
6	11741	0.000009380667	189
6	11749	0.00000939	189
6	11769	0.000009400667	188
6	11778	0.00000941	188
6	11798	0.000009420667	187
6	11804	0.00000943	187
6	11827	0.000009440667	186
6	11832	0.00000945	186
6	11855	0.000009460667	185
6	11863	0.00000947	185
6	11911	0.000009480667	197
6	11920	0.00000949	197
6	11940	0.000009500667	196
6	11946	0.00000951	196
6	11969	0.000009520667	195
6	11974	0.00000953	195
6	11997	0.000009540667	194
6	12005	0.00000955	194
6	12025	0.000009560667	193
6	12034	0.00000957	193
6	12054	0.000009580667	192
6	12063	0.00000959	192
6	12087	0.000009600667	191
6	12092	0.00000961	191
6	12115	0.000009620667	190
6	12123	0.00000963	190
6	12146	0.000009640667	189
6	12155	0.00000965	189
6	12175	0.000009660667	188
6	12181	0.00000967	188
6	12204	0.000009680667	187
6	12212	0.00000969	187
6	12236	0.000009700667	186
6	12244	0.00000971	186
6	12264	0.000009720667	185
6	12285	0.000009729	198
6	12295	0.00000973	198
6	12320	0.000009740667	197
6	12326	0.00000975	197
6	12349	0.000009760667	196
6	12354	0.00000977	196
6	12377	0.000009780667	195
6	12388	0.00000979	195
6	12409	0.000009800667	194
6	12418	0.00000981	194
6	12438	0.000009820667	193
6	12444	0.00000983	193
6	12467	0.000009840667	192
6	12472	0.00000985	192
6	12495	0.000009860667	191
6	12503	0.00000987	191
6	12523	0.000009880667	190
6	12532	0.00000989	190
6	12552	0.000009900667	189
6	12558	0.00000991	189
6	12581	0.000009920667	188
6	12586	0.00000993	188
6	12609	0.000009940667	187
6	12617	0.00000995	187
6	12637	0.000009960667	186
6	12646	0.00000997	186
6	12666	0.000009980667	185
6	12684	0.000009985	197
6	12697	0.00000999	197
6	12720	0.000010000667	196
6	12725	0.00001001	196
6	12748	0.000010020667	195
6	12756	0.00001003	195
6	12776	0.000010040667	194
6	12785	0.00001005	194
6	12805	0.000010060667	193
6	12814	0.00001007	193
6	12838	0.000010080667	192
6	12843	0.00001009	192
6	12866	0.000010100667	191
6	12874	0.00001011	191
6	12897	0.000010120667	190
6	12906	0.00001013	190
6	12926	0.000010140667	189
6	12932	0.00001015	189
6	12955	0.000010160667	188
6	12963	0.00001017	188
6	12987	0.000010180667	187
6	12995	0.00001019	187
6	13015	0.000010200667	186
6	13024	0.00001021	186
6	13046	0.000010220667	185
6	13052	0.00001023	185
6	13076	0.000010240667	184
6	13092	0.000010241	197
6	13105	0.00001025	197
6	13134	0.000010260667	196
6	13145	0.00001027	196
6	13166	0.000010280667	195
6	13175	0.000010291	195
6	13195	0.000010301667	194
6	13201	0.00001031	194
6	13224	0.000010320667	193
6	13229	0.00001033	193
6	13245	0.000010340667	192
6	13258	0.00001035	192
6	13280	0.000010360667	191
6	13289	0.00001037	191
6	13309	0.000010380667	190
6	13317	0.000010391	190
6	13338	0.000010401667	189
6	13343	0.00001041	189
6	13366	0.000010420667	188
6	13374	0.00001043	188
6	13390	0.000010440667	187
6	13402	0.00001045	187
6	13423	0.000010460667	186
6	13429	0.00001047	186
6	13452	0.000010480667	185
6	13457	0.00001049	185
6	13508	0.000010500667	197
6	13516	0.00001051	197
6	13536	0.000010520667	196
6	13545	0.00001053	196
6	13565	0.000010540667	195
6	13574	0.00001055	195
6	13598	0.000010560667	194
6	13603	0.00001057	194
6	13626	0.000010580667	193
6	13634	0.00001059	193
6	13657	0.000010600667	192
6	13666	0.00001061	192
6	13686	0.000010620667	191
6	13692	0.00001063	191
6	13715	0.000010640667	190
6	13723	0.00001065	190
6	13747	0.000010660667	189
6	13755	0.00001067	189
6	13775	0.000010680667	188
6	13784	0.00001069	188
6	13806	0.000010700667	187
6	13812	0.00001071	187
6	13835	0.000010720667	186
6	13840	0.00001073	186
6	13863	0.000010740667	185
6	13874	0.00001075	185
6	13923	0.000010760667	197
6	13932	0.00001077	197
6	13952	0.000010780667	196
6	13958	0.00001079	196
6	13981	0.000010800667	195
6	13986	0.00001081	195
6	14009	0.000010820667	194
6	14017	0.00001083	194
6	14037	0.000010840667	193
6	14046	0.00001085	193
6	14066	0.000010860667	192
6	14072	0.00001087	192
6	14095	0.000010880667	191
6	14100	0.00001089	191
6	14123	0.000010900667	190
6	14131	0.00001091	190
6	14151	0.000010920667	189
6	14160	0.00001093	189
6	14180	0.000010940667	188
6	14186	0.00001095	188
6	14209	0.000010960667	187
6	14214	0.00001097	187
6	14237	0.000010980667	186
6	14245	0.00001099	186
6	14265	0.000011000667	185
6	14286	0.000011009	198
6	14296	0.00001101	198
6	14319	0.000011020667	197
6	14328	0.00001103	197
6	14352	0.000011040667	196
6	14357	0.00001105	196
6	14380	0.000011060667	195
6	14388	0.00001107	195
6	14411	0.000011080667	194
6	14420	0.00001109	194
6	14440	0.000011100667	193
6	14446	0.00001111	193
6	14469	0.000011120667	192
6	14477	0.00001113	192
6	14501	0.000011140667	191
6	14509	0.00001115	191
6	14529	0.000011160667	190
6	14538	0.00001117	190
6	14560	0.000011180667	189
6	14566	0.00001119	189
6	14589	0.000011200667	188
6	14594	0.00001121	188
6	14617	0.000011220667	187
6	14628	0.00001123	187
6	14649	0.000011240667	186
6	14658	0.00001125	186
6	14678	0.000011260667	185
6	14696	0.000011265	197
6	14709	0.00001127	197
6	14732	0.000011280667	196
6	14737	0.00001129	196
6	14760	0.000011300667	195
6	14768	0.00001131	195
6	14788	0.000011320667	194
6	14797	0.00001133	194
6	14817	0.000011340667	193
6	14823	0.00001135	193
6	14846	0.000011360667	192
6	14851	0.00001137	192
6	14874	0.000011380667	191
6	14882	0.00001139	191
6	14902	0.000011400667	190
6	14911	0.00001141	190
6	14931	0.000011420667	189
6	14937	0.00001143	189
6	14960	0.000011440667	188
6	14965	0.00001145	188
6	14988	0.000011460667	187
6	14996	0.00001147	187
6	15016	0.000011480667	186
6	15025	0.00001149	186
6	15045	0.000011500667	185
6	15054	0.00001151	185
6	15079	0.000011520667	184
6	15095	0.000011521	197
6	15108	0.00001153	197
6	15137	0.000011540667	196
6	15145	0.00001155	196
6	15168	0.000011560667	195
6	15177	0.000011571	195
6	15197	0.000011581667	194
6	15203	0.00001159	194
6	15226	0.000011600667	193
6	15234	0.00001161	193
6	15251	0.000011620667	192
6	15264	0.00001163	192
6	15286	0.000011640667	191
6	15295	0.00001165	191
6	15317	0.000011660667	190
6	15325	0.000011671	190
6	15346	0.000011681667	189
6	15351	0.00001169	189
6	15374	0.000011700667	188
6	15385	0.00001171	188
6	15402	0.000011720667	187
6	15414	0.00001173	187
6	15435	0.000011740667	186
6	15441	0.00001175	186
6	15464	0.000011760667	185
6	15469	0.00001177	185
6	15520	0.000011780667	197
6	15528	0.00001179	197
6	15548	0.000011800667	196
6	15557	0.00001181	196
6	15577	0.000011820667	195
6	15583	0.00001183	195
6	15606	0.000011840667	194
6	15611	0.00001185	194
6	15634	0.000011860667	193
6	15642	0.00001187	193
6	15662	0.000011880667	192
6	15671	0.00001189	192
6	15691	0.000011900667	191
6	15697	0.00001191	191
6	15720	0.000011920667	190
6	15725	0.00001193	190
6	15748	0.000011940667	189
6	15756	0.00001195	189
6	15776	0.000011960667	188
6	15785	0.00001197	188
6	15805	0.000011980667	187
6	15814	0.00001199	187
6	15838	0.000012000667	186
6	15843	0.00001201	186
6	15866	0.000012020667	185
6	15874	0.00001203	185
6	15925	0.000012040667	197
6	15934	0.00001205	197
6	15954	0.000012060667	196
6	15960	0.00001207	196
6	15983	0.000012080667	195
6	15991	0.00001209	195
6	16015	0.000012100667	194
6	16023	0.00001211	194
6	16043	0.000012120667	193
6	16052	0.00001213	193
6	16074	0.000012140667	192
6	16080	0.00001215	192
6	16103	0.000012160667	191
6	16108	0.00001217	191
6	16131	0.000012180667	190
6	16142	0.00001219	190
6	16163	0.000012200667	189
6	16172	0.00001221	189
6	16192	0.000012220667	188
6	16198	0.00001223	188
6	16221	0.000012240667	187
6	16226	0.00001225	187
6	16249	0.000012260667	186
6	16257	0.00001227	186
6	16277	0.000012280667	185
6	16298	0.000012289	198
6	16308	0.00001229	198
6	16331	0.000012300667	197
6	16337	0.00001231	197
6	16360	0.000012320667	196
6	16365	0.00001233	196
6	16388	0.000012340667	195
6	16396	0.00001235	195
6	16416	0.000012360667	194
6	16426	0.00001237	194
6	16446	0.000012380667	193
6	16452	0.00001239	193
6	16474	0.000012400667	192
6	16479	0.00001241	192
6	16502	0.000012420667	191
6	16510	0.00001243	191
6	16530	0.000012440667	190
6	16538	0.00001245	190
6	16559	0.000012460667	189
6	16567	0.00001247	189
6	16585	0.000012480667	188
6	16589	0.00001249	188
6	16605	0.000012500667	187
6	16612	0.00001251	187
6	16628	0.000012520667	186
6	16634	0.00001253	186
6	16645	0.000012540667	185
6	16663	0.000012545	197
6	16674	0.00001255	197
6	16687	0.000012560667	196
6	16693	0.00001257	196
6	16704	0.000012580667	195
6	16709	0.00001259	195
6	16716	0.000012600667	194
6	16721	0.00001261	194
6	16731	0.000012620667	193
6	16775	0.000012801	200
6	16911	0.000013534	200
6	16927	0.000013544667	199
6	16931	0.000013554	199
6	16947	0.000013564667	198
6	16973	0.000013574	198
6	16993	0.000013584667	197
6	16999	0.000013594	197
6	17021	0.000013604667	196
6	17027	0.000013614	196
6	17050	0.000013624667	195
6	17058	0.000013634	195
6	17078	0.000013644667	194
6	17086	0.000013654	194
6	17107	0.000013664667	193
6	17113	0.000013674	193
6	17135	0.000013684667	192
6	17141	0.000013694	192
6	17164	0.000013704667	191
6	17172	0.000013714	191
6	17192	0.000013724667	190
6	17200	0.000013734	190
6	17221	0.000013744667	189
6	17227	0.000013754	189
6	17249	0.000013764667	188
6	17255	0.000013774	188
6	17278	0.000013784667	187
6	17286	0.000013794	187
6	17306	0.000013804667	186
6	17314	0.000013814	186
6	17336	0.000013824667	185
6	17353	0.000013825	197
6	17366	0.000013834	197
6	17394	0.000013844667	196
6	17403	0.000013854	196
6	17427	0.000013864667	195
6	17435	0.000013875	195
6	17455	0.000013885667	194
6	17463	0.000013894	194
6	17486	0.000013904667	193
6	17495	0.000013914	193
6	17508	0.000013924667	192
6	17519	0.000013934	192
6	17544	0.000013944667	191
6	17552	0.000013954	191
6	17576	0.000013964667	190
6	17587	0.000013975	190
6	17605	0.000013985667	189
6	17614	0.000013994	189
6	17635	0.000014004667	188
6	17644	0.000014014	188
6	17661	0.000014024667	187
6	17669	0.000014034	187
6	17693	0.000014044667	186
6	17701	0.000014054	186
6	17725	0.000014064667	185
6	17734	0.000014074	185
6	17781	0.000014084667	197
6	17790	0.000014094	197
6	17810	0.000014104667	196
6	17818	0.000014114	196
6	17839	0.000014124667	195
6	17844	0.000014134	195
6	17867	0.000014144667	194
6	17873	0.000014154	194
6	17895	0.000014164667	193
6	17904	0.000014174	193
6	17924	0.000014184667	192
6	17932	0.000014194	192
6	17953	0.000014204667	191
6	17958	0.000014214	191
6	17981	0.000014224667	190
6	17987	0.000014234	190
6	18009	0.000014244667	189
6	18018	0.000014254	189
6	18038	0.000014264667	188
6	18046	0.000014274	188
6	18067	0.000014284667	187
6	18072	0.000014294	187
6	18095	0.000014304667	186
6	18101	0.000014314	186
6	18123	0.000014324667	185
6	18135	0.000014334	185
6	18184	0.000014344667	197
6	18192	0.000014354	197
6	18213	0.000014364667	196
6	18218	0.000014374	196
6	18244	0.000014384667	195
6	18250	0.000014394	195
6	18272	0.000014404667	194
6	18281	0.000014414	194
6	18301	0.000014424667	193
6	18312	0.000014434	193
6	18334	0.000014444667	192
6	18339	0.000014454	192
6	18362	0.000014464667	191
6	18368	0.000014474	191
6	18392	0.000014484667	190
6	18401	0.000014494	190
6	18421	0.000014504667	189
6	18429	0.000014514	189
6	18450	0.000014524667	188
6	18458	0.000014534	188
6	18482	0.000014544667	187
6	18488	0.000014554	187
6	18510	0.000014564667	186
6	18519	0.000014574	186
6	18539	0.000014584667	185
6	18559	0.000014593	198
6	18569	0.000014594	198
6	18593	0.000014604667	197
6	18598	0.000014614	197
6	18621	0.000014624667	196
6	18627	0.000014634	196
6	18649	0.000014644667	195
6	18658	0.000014654	195
6	18678	0.000014664667	194
6	18686	0.000014674	194
6	18707	0.000014684667	193
6	18712	0.000014694	193
6	18735	0.000014704667	192
6	18741	0.000014714	192
6	18763	0.000014724667	191
6	18772	0.000014734	191
6	18792	0.000014744667	190
6	18800	0.000014754	190
6	18821	0.000014764667	189
6	18826	0.000014774	189
6	18849	0.000014784667	188
6	18855	0.000014794	188
6	18877	0.000014804667	187
6	18889	0.000014814	187
6	18910	0.000014824667	186
6	18918	0.000014834	186
6	18939	0.000014844667	185
6	18956	0.000014849	197
6	18969	0.000014854	197
6	18995	0.000014864667	196
6	19001	0.000014874	196
6	19023	0.000014884667	195
6	19032	0.000014894	195
6	19052	0.000014904667	194
6	19063	0.000014914	194
6	19085	0.000014924667	193
6	19090	0.000014934	193
6	19113	0.000014944667	192
6	19119	0.000014954	192
6	19143	0.000014964667	191
6	19152	0.000014974	191
6	19172	0.000014984667	190
6	19180	0.000014994	190
6	19201	0.000015004667	189
6	19209	0.000015014	189
6	19233	0.000015024667	188
6	19239	0.000015034	188
6	19261	0.000015044667	187
6	19270	0.000015054	187
6	19290	0.000015064667	186
6	19298	0.000015074	186
6	19319	0.000015084667	185
6	19324	0.000015094	185
6	19348	0.000015104667	184
6	19364	0.000015105	197
6	19378	0.000015114	197
6	19406	0.000015124667	196
6	19415	0.000015134	196
6	19435	0.000015144667	195
6	19443	0.000015155	195
6	19464	0.000015165667	194
6	19469	0.000015174	194
6	19492	0.000015184667	193
6	19498	0.000015194	193
6	19513	0.000015204667	192
6	19527	0.000015214	192
6	19549	0.000015224667	191
6	19557	0.000015234	191
6	19578	0.000015244667	190
6	19585	0.000015255	190
6	19606	0.000015265667	189
6	19612	0.000015274	189
6	19634	0.000015284667	188
6	19646	0.000015294	188
6	19663	0.000015304667	187
6	19674	0.000015314	187
6	19696	0.000015324667	186
6	19701	0.000015334	186
6	19727	0.000015344667	185
6	19733	0.000015354	185
6	19783	0.000015364667	197
6	19792	0.000015374	197
6	19812	0.000015384667	196
6	19823	0.000015394	196
6	19845	0.000015404667	195
6	19850	0.000015414	195
6	19873	0.000015424667	194
6	19879	0.000015434	194
6	19903	0.000015444667	193
6	19912	0.000015454	193
6	19932	0.000015464667	192
6	19940	0.000015474	192
6	19961	0.000015484667	191
6	19969	0.000015494	191
6	19993	0.000015504667	190
6	19999	0.000015514	190
6	20021	0.000015524667	189
6	20030	0.000015534	189
6	20050	0.000015544667	188
6	20058	0.000015554	188
6	20079	0.000015564667	187
6	20084	0.000015574	187
6	20107	0.000015584667	186
6	20113	0.000015594	186
6	20135	0.000015604667	185
6	20144	0.000015614	185
6	20192	0.000015624667	197
6	20200	0.000015634	197
6	20221	0.000015644667	196
6	20226	0.000015654	196
6	20249	0.000015664667	195
6	20255	0.000015674	195
6	20277	0.000015684667	194
6	20286	0.000015694	194
6	20306	0.000015704667	193
6	20314	0.000015714	193
6	20335	0.000015724667	192
6	20340	0.000015734	192
6	20363	0.000015744667	191
6	20369	0.000015754	191
6	20391	0.000015764667	190
6	20403	0.000015774	190
6	20424	0.000015784667	189
6	20432	0.000015794	189
6	20453	0.000015804667	188
6	20458	0.000015814	188
6	20484	0.000015824667	187
6	20490	0.000015834	187
6	20512	0.000015844667	186
6	20521	0.000015854	186
6	20541	0.000015864667	185
6	20561	0.000015873	198
6	20574	0.000015874	198
6	20599	0.000015884667	197
6	20604	0.000015894	197
6	20627	0.000015904667	196
6	20633	0.000015914	196
6	20657	0.000015924667	195
6	20666	0.000015934	195
6	20686	0.000015944667	194
6	20694	0.000015954	194
6	20715	0.000015964667	193
6	20723	0.000015974	193
6	20747	0.000015984667	192
6	20753	0.000015994	192
6	20775	0.000016004667	191
6	20784	0.000016014	191
6	20804	0.000016024667	190
6	20812	0.000016034	190
6	20833	0.000016044667	189
6	20838	0.000016054	189
6	20861	0.000016064667	188
6	20867	0.000016074	188
6	20889	0.000016084667	187
6	20898	0.000016094	187
6	20918	0.000016104667	186
6	20926	0.000016114	186
6	20947	0.000016124667	185
6	20964	0.000016129	197
6	20977	0.000016134	197
6	21000	0.000016144667	196
6	21006	0.000016154	196
6	21028	0.000016164667	195
6	21037	0.000016174	195
6	21057	0.000016184667	194
6	21065	0.000016194	194
6	21086	0.000016204667	193
6	21091	0.000016214	193
6	21114	0.000016224667	192
6	21120	0.000016234	192
6	21142	0.000016244667	191
6	21154	0.000016254	191
6	21175	0.000016264667	190
6	21183	0.000016274	190
6	21204	0.000016284667	189
6	21209	0.000016294	189
6	21235	0.000016304667	188
6	21241	0.000016314	188
6	21263	0.000016324667	187
6	21272	0.000016334	187
6	21292	0.000016344667	186
6	21303	0.000016354	186
6	21325	0.000016364667	185
6	21330	0.000016374	185
6	21354	0.000016384667	184
6	21370	0.000016385	197
6	21384	0.000016394	197
6	21414	0.000016404667	196
6	21423	0.000016414	196
6	21443	0.000016424667	195
6	21451	0.000016435	195
6	21472	0.000016445667	194
6	21480	0.000016454	194
6	21504	0.000016464667	193
6	21510	0.000016474	193
6	21525	0.000016484667	192
6	21539	0.000016494	192
6	21561	0.000016504667	191
6	21569	0.000016514	191
6	21590	0.000016524667	190
6	21597	0.000016535	190
6	21618	0.000016545667	189
6	21624	0.000016554	189
6	21646	0.000016564667	188
6	21655	0.000016574	188
6	21671	0.000016584667	187
6	21682	0.000016594	187
6	21704	0.000016604667	186
6	21709	0.000016614	186
6	21732	0.000016624667	185
6	21738	0.000016634	185
6	21788	0.000016644667	197
6	21797	0.000016654	197
6	21817	0.000016664667	196
6	21825	0.000016674	196
6	21846	0.000016684667	195
6	21851	0.000016694	195
6	21874	0.000016704667	194
6	21880	0.000016714	194
6	21902	0.000016724667	193
6	21914	0.000016734	193
6	21935	0.000016744667	192
6	21943	0.000016754	192
6	21964	0.000016764667	191
6	21969	0.000016774	191
6	21995	0.000016784667	190
6	22001	0.000016794	190
6	22023	0.000016804667	189
6	22032	0.000016814	189
6	22052	0.000016824667	188
6	22063	0.000016834	188
6	22085	0.000016844667	187
6	22090	0.000016854	187
6	22113	0.000016864667	186
6	22119	0.000016874	186
6	22143	0.000016884667	185
6	22152	0.000016894	185
6	22200	0.000016904667	197
6	22208	0.000016914	197
6	22229	0.000016924667	196
6	22237	0.000016934	196
6	22261	0.000016944667	195
6	22267	0.000016954	195
6	22289	0.000016964667	194
6	22298	0.000016974	194
6	22318	0.000016984667	193
6	22326	0.000016994	193
6	22347	0.000017004667	192
6	22352	0.000017014	192
6	22375	0.000017024667	191
6	22381	0.000017034	191
6	22403	0.000017044667	190
6	22412	0.000017054	190
6	22432	0.000017064667	189
6	22440	0.000017074	189
6	22461	0.000017084667	188
6	22466	0.000017094	188
6	22489	0.000017104667	187
6	22495	0.000017114	187
6	22517	0.000017124667	186
6	22526	0.000017134	186
6	22546	0.000017144667	185
6	22566	0.000017153	198
6	22576	0.000017154	198
6	22600	0.000017164667	197
6	22605	0.000017174	197
6	22628	0.000017184667	196
6	22634	0.000017194	196
6	22656	0.000017204667	195
6	22668	0.000017214	195
6	22689	0.000017224667	194
6	22697	0.000017234	194
6	22718	0.000017244667	193
6	22723	0.000017254	193
6	22749	0.000017264667	192
6	22755	0.000017274	192
6	22777	0.000017284667	191
6	22786	0.000017294	191
6	22806	0.000017304667	190
6	22817	0.000017314	190
6	22839	0.000017324667	189
6	22844	0.000017334	189
6	22867	0.000017344667	188
6	22873	0.000017354	188
6	22897	0.000017364667	187
6	22906	0.000017374	187
6	22926	0.000017384667	186
6	22934	0.000017394	186
6	22955	0.000017404667	185
6	22972	0.000017409	197
6	22988	0.000017414	197
6	23012	0.000017424667	196
6	23018	0.000017434	196
6	23040	0.000017444667	195
6	23049	0.000017454	195
6	23069	0.000017464667	194
6	23077	0.000017474	194
6	23098	0.000017484667	193
6	23103	0.000017494	193
6	23126	0.000017504667	192
6	23132	0.000017514	192
6	23154	0.000017524667	191
6	23163	0.000017534	191
6	23183	0.000017544667	190
6	23191	0.000017554	190
6	23212	0.000017564667	189
6	23217	0.000017574	189
6	23240	0.000017584667	188
6	23246	0.000017594	188
6	23268	0.000017604667	187
6	23277	0.000017614	187
6	23297	0.000017624667	186
6	23305	0.000017634	186
6	23326	0.000017644667	185
6	23331	0.000017654	185
6	23355	0.000017664667	184
6	23371	0.000017665	197
6	23385	0.000017674	197
6	23413	0.000017684667	196
6	23425	0.000017694	196
6	23446	0.000017704667	195
6	23454	0.000017715	195
6	23475	0.000017725667	194
6	23480	0.000017734	194
6	23506	0.000017744667	193
6	23512	0.000017754	193
6	23527	0.000017764667	192
6	23541	0.000017774	192
6	23563	0.000017784667	191
6	23574	0.000017794	191
6	23596	0.000017804667	190
6	23603	0.000017815	190
6	23624	0.000017825667	189
6	23630	0.000017834	189
6	23654	0.000017844667	188
6	23663	0.000017854	188
6	23679	0.000017864667	187
6	23690	0.000017874	187
6	23712	0.000017884667	186
6	23720	0.000017894	186
6	23744	0.000017904667	185
6	23750	0.000017914	185
6	23800	0.000017924667	197
6	23809	0.000017934	197
6	23829	0.000017944667	196
6	23837	0.000017954	196
6	23858	0.000017964667	195
6	23863	0.000017974	195
6	23886	0.000017984667	194
6	23892	0.000017994	194
6	23914	0.000018004667	193
6	23923	0.000018014	193
6	23943	0.000018024667	192
6	23951	0.000018034	192
6	23972	0.000018044667	191
6	23977	0.000018054	191
6	24000	0.000018064667	190
6	24006	0.000018074	190
6	24028	0.000018084667	189
6	24037	0.000018094	189
6	24057	0.000018104667	188
6	24065	0.000018114	188
6	24086	0.000018124667	187
6	24091	0.000018134	187
6	24114	0.000018144667	186
6	24120	0.000018154	186
6	24142	0.000018164667	185
6	24154	0.000018174	185
6	24203	0.000018184667	197
6	24211	0.000018194	197
6	24232	0.000018204667	196
6	24237	0.000018214	196
6	24263	0.000018224667	195
6	24269	0.000018234	195
6	24291	0.000018244667	194
6	24300	0.000018254	194
6	24320	0.000018264667	193
6	24331	0.000018274	193
6	24353	0.000018284667	192
6	24358	0.000018294	192
6	24381	0.000018304667	191
6	24387	0.000018314	191
6	24411	0.000018324667	190
6	24420	0.000018334	190
6	24440	0.000018344667	189
6	24448	0.000018354	189
6	24469	0.000018364667	188
6	24477	0.000018374	188
6	24501	0.000018384667	187
6	24507	0.000018394	187
6	24529	0.000018404667	186
6	24538	0.000018414	186
6	24558	0.000018424667	185
6	24578	0.000018433	198
6	24588	0.000018434	198
6	24612	0.000018444667	197
6	24617	0.000018454	197
6	24640	0.000018464667	196
6	24646	0.000018474	196
6	24668	0.000018484667	195
6	24677	0.000018494	195
6	24697	0.000018504667	194
6	24705	0.000018514	194
6	24726	0.000018524667	193
6	24731	0.000018534	193
6	24754	0.000018544667	192
6	24761	0.000018554	192
6	24783	0.000018564667	191
6	24792	0.000018574	191
6	24811	0.000018584667	190
6	24819	0.000018594	190
6	24840	0.000018604667	189
6	24845	0.000018614	189
6	24868	0.000018624667	188
6	24873	0.000018634	188
6	24896	0.000018644667	187
6	24907	0.000018654	187
6	24922	0.000018664667	186
6	24929	0.000018674	186
6	24943	0.000018684667	185
6	24961	0.000018689	197
6	24973	0.000018694	197
6	24992	0.000018704667	196
6	24995	0.000018714	196
6	25008	0.000018724667	195
6	25014	0.000018734	195
6	25024	0.000018744667	194
6	25033	0.000018754	194
6	25042	0.000018764667	193
6	25044	0.000018774	193
6	25054	0.000018784667	192
6	25056	0.000018794	192
6	25068	0.000018804667	191
6	25114	0.000018945	200
6	25271	0.000019718	200
6	25287	0.000019728667	199
6	25291	0.000019738	199
6	25307	0.000019748667	198
6	25311	0.000019758	198
6	25331	0.000019768667	197
6	25337	0.000019778	197
6	25359	0.000019788667	196
6	25365	0.000019798	196
6	25388	0.000019808667	195
6	25396	0.000019818	195
6	25416	0.000019828667	194
6	25424	0.000019838	194
6	25445	0.000019848667	193
6	25451	0.000019858	193
6	25473	0.000019868667	192
6	25479	0.000019878	192
6	25502	0.000019888667	191
6	25510	0.000019898	191
6	25530	0.000019908667	190
6	25538	0.000019918	190
6	25559	0.000019928667	189
6	25565	0.000019938	189
6	25587	0.000019948667	188
6	25593	0.000019958	188
6	25617	0.000019968667	187
6	25634	0.000019969	197
6	25649	0.000019978	197
6	25675	0.000019988667	196
6	25683	0.000019998	196
6	25704	0.000020008667	195
6	25710	0.000020019	195
6	25732	0.000020029667	194
6	25741	0.000020038	194
6	25765	0.000020048667	193
6	25773	0.000020058	193
6	25786	0.000020068667	192
6	25799	0.000020078	192
6	25825	0.000020088667	191
6	25831	0.000020098	191
6	25853	0.000020108667	190
6	25862	0.000020119	190
6	25883	0.000020129667	189
6	25894	0.000020138	189
6	25915	0.000020148667	188
6	25923	0.000020158	188
6	25940	0.000020168667	187
6	25949	0.000020178	187
6	25974	0.000020188667	186
6	25980	0.000020198	186
6	26003	0.000020208667	185
6	26011	0.000020218	185
6	26059	0.000020228667	197
[...]
34	91413	0.000067964	1
34	91441	0.00006798	1
34	91481	0.000068012	1
34	91509	0.000068028	1
34	91528	0.000068044	1
34	91555	0.00006806	1
34	91595	0.000068092	1
34	91652	0.000068108	1
34	91671	0.000068124	1
34	91697	0.00006814	1
34	91729	0.000068172	1
34	91746	0.000068188	1
34	91757	0.000068204	1
34	91773	0.00006822	1
34	91795	0.000068252	1
34	91809	0.000068268	1
34	91817	0.000068284	1
34	91825	0.0000683	1
34	91839	0.000068332	1
34	92095	0.000069256	1
34	92122	0.000069272	1
34	92141	0.000069288	1
34	92169	0.000069304	1
34	92209	0.000069337	1
34	92236	0.000069353	1
34	92255	0.000069369	1
34	92311	0.000069385	1
34	92339	0.000069401	1
34	92379	0.000069436	1
34	92406	0.000069452	1
34	92425	0.000069468	1
34	92453	0.000069484	1
34	92497	0.000069516	1
34	92524	0.000069532	1
34	92543	0.000069548	1
34	92574	0.000069564	1
34	92614	0.000069596	1
34	92645	0.000069612	1
34	92664	0.000069628	1
34	92720	0.000069644	1
34	92762	0.000069676	1
34	92789	0.000069692	1
34	92808	0.000069708	1
34	92840	0.000069724	1
34	92880	0.000069756	1
34	92907	0.000069772	1
34	92926	0.000069788	1
34	92954	0.000069804	1
34	92994	0.000069836	1
34	93021	0.000069852	1
34	93040	0.000069868	1
34	93068	0.000069884	1
34	93133	0.000069916	1
34	93160	0.000069932	1
34	93179	0.000069948	1
34	93207	0.000069964	1
34	93251	0.000069996	1
34	93278	0.000070012	1
34	93297	0.000070028	1
34	93328	0.000070044	1
34	93368	0.000070076	1
34	93399	0.000070092	1
34	93418	0.000070108	1
34	93446	0.000070124	1
34	93513	0.000070156	1
34	93540	0.000070172	1
34	93559	0.000070188	1
34	93591	0.000070204	1
34	93631	0.000070236	1
34	93658	0.000070252	1
34	93677	0.000070268	1
34	93705	0.000070284	1
34	93745	0.000070316	1
34	93772	0.000070332	1
34	93791	0.000070348	1
34	93819	0.000070364	1
34	93859	0.000070396	1
34	93917	0.000070412	1
34	93936	0.000070428	1
34	93964	0.000070444	1
34	94008	0.000070476	1
34	94035	0.000070492	1
34	94054	0.000070508	1
34	94085	0.000070524	1
34	94125	0.000070556	1
34	94156	0.000070572	1
34	94175	0.000070588	1
34	94203	0.000070604	1
34	94245	0.000070636	1
34	94272	0.000070652	1
34	94319	0.000070668	1
34	94351	0.000070684	1
34	94391	0.000070716	1
34	94418	0.000070732	1
34	94437	0.000070748	1
34	94465	0.000070764	1
34	94505	0.000070796	1
34	94532	0.000070812	1
34	94551	0.000070828	1
34	94579	0.000070844	1
34	94619	0.000070876	1
34	94646	0.000070892	1
34	94665	0.000070908	1
34	94721	0.000070924	1
34	94765	0.000070956	1
34	94792	0.000070972	1
34	94811	0.000070988	1
34	94842	0.000071004	1
34	94882	0.000071036	1
34	94913	0.000071052	1
34	94932	0.000071068	1
34	94960	0.000071084	1
34	95002	0.000071116	1
34	95029	0.000071132	1
34	95048	0.000071148	1
34	95080	0.000071164	1
34	95145	0.000071196	1
34	95172	0.000071212	1
34	95191	0.000071228	1
34	95219	0.000071244	1
34	95259	0.000071276	1
34	95286	0.000071292	1
34	95305	0.000071308	1
34	95333	0.000071324	1
34	95373	0.000071356	1
34	95400	0.000071372	1
34	95419	0.000071388	1
34	95447	0.000071404	1
34	95516	0.000071436	1
34	95543	0.000071452	1
34	95562	0.000071468	1
34	95593	0.000071484	1
34	95633	0.000071516	1
34	95664	0.000071532	1
34	95683	0.000071548	1
34	95711	0.000071564	1
34	95753	0.000071596	1
34	95780	0.000071612	1
34	95799	0.000071628	1
34	95831	0.000071644	1
34	95871	0.000071676	1
34	95929	0.000071692	1
34	95948	0.000071708	1
34	95976	0.000071724	1
34	96016	0.000071756	1
34	96043	0.000071772	1
34	96062	0.000071788	1
34	96090	0.000071804	1
34	96130	0.000071836	1
34	96157	0.000071852	1
34	96176	0.000071868	1
34	96204	0.000071884	1
34	96248	0.000071916	1
34	96275	0.000071932	1
34	96322	0.000071948	1
34	96353	0.000071964	1
34	96393	0.000071996	1
34	96424	0.000072012	1
34	96443	0.000072028	1
34	96471	0.000072044	1
34	96513	0.000072076	1
34	96540	0.000072092	1
34	96559	0.000072108	1
34	96591	0.000072124	1
34	96631	0.000072156	1
34	96658	0.000072172	1
34	96677	0.000072188	1
34	96733	0.000072204	1
34	96773	0.000072236	1
34	96800	0.000072252	1
34	96819	0.000072268	1
34	96847	0.000072284	1
34	96887	0.000072316	1
34	96914	0.000072332	1
34	96933	0.000072348	1
34	96961	0.000072364	1
34	97005	0.000072396	1
34	97032	0.000072412	1
34	97051	0.000072428	1
34	97082	0.000072444	1
34	97147	0.000072476	1
34	97178	0.000072492	1
34	97197	0.000072508	1
34	97225	0.000072524	1
34	97267	0.000072556	1
34	97294	0.000072572	1
34	97313	0.000072588	1
34	97345	0.000072604	1
34	97385	0.000072636	1
34	97412	0.000072652	1
34	97431	0.000072668	1
34	97459	0.000072684	1
34	97524	0.000072716	1
34	97551	0.000072732	1
34	97570	0.000072748	1
34	97598	0.000072764	1
34	97638	0.000072796	1
34	97665	0.000072812	1
34	97684	0.000072828	1
34	97712	0.000072844	1
34	97756	0.000072876	1
34	97783	0.000072892	1
34	97802	0.000072908	1
34	97833	0.000072924	1
34	97873	0.000072956	1
34	97935	0.000072972	1
34	97954	0.000072988	1
34	97982	0.000073004	1
34	98024	0.000073036	1
34	98051	0.000073052	1
34	98070	0.000073068	1
34	98102	0.000073084	1
34	98142	0.000073116	1
34	98169	0.000073132	1
34	98188	0.000073148	1
34	98216	0.000073164	1
34	98256	0.000073196	1
34	98283	0.000073212	1
34	98330	0.000073228	1
34	98358	0.000073244	1
34	98398	0.000073276	1
34	98425	0.000073292	1
34	98444	0.000073308	1
34	98472	0.000073324	1
34	98516	0.000073356	1
34	98543	0.000073372	1
34	98562	0.000073388	1
34	98593	0.000073404	1
34	98633	0.000073436	1
34	98664	0.000073452	1
34	98683	0.000073468	1
34	98739	0.000073484	1
34	98781	0.000073516	1
34	98808	0.000073532	1
34	98827	0.000073548	1
34	98859	0.000073564	1
34	98899	0.000073596	1
34	98926	0.000073612	1
34	98945	0.000073628	1
34	98973	0.000073644	1
34	99013	0.000073676	1
34	99040	0.000073692	1
34	99059	0.000073708	1
34	99087	0.000073724	1
34	99152	0.000073756	1
34	99179	0.000073772	1
34	99198	0.000073788	1
34	99226	0.000073804	1
34	99270	0.000073836	1
34	99297	0.000073852	1
34	99316	0.000073868	1
34	99347	0.000073884	1
34	99387	0.000073916	1
34	99418	0.000073932	1
34	99437	0.000073948	1
34	99465	0.000073964	1
34	99532	0.000073996	1
34	99559	0.000074012	1
34	99578	0.000074028	1
34	99610	0.000074044	1
34	99650	0.000074076	1
34	99677	0.000074092	1
34	99696	0.000074108	1
34	99724	0.000074124	1
34	99764	0.000074156	1
34	99791	0.000074172	1
34	99810	0.000074188	1
34	99838	0.000074204	1
34	99879	0.000074236	1
34	99936	0.000074252	1
34	99955	0.000074268	1
34	99983	0.000074284	1
34	100025	0.000074316	1
34	100046	0.000074332	1
34	100058	0.000074348	1
34	100081	0.000074364	1
34	100103	0.000074396	1
34	100123	0.000074412	1
34	100131	0.000074428	1
34	100143	0.000074444	1
34	100159	0.000074476	1
34	100167	0.000074492	1
34	100202	0.000074508	1
34	100435	0.00007544	1
34	100462	0.000075456	1
34	100481	0.000075472	1
34	100509	0.000075488	1
34	100557	0.00007552	1
34	100604	0.000075536	1
34	100623	0.000075552	1
34	100651	0.000075568	1
34	100691	0.0000756	1
34	100718	0.000075616	1
34	100737	0.000075632	1
34	100765	0.000075648	1
34	100805	0.00007568	1
34	100836	0.000075696	1
34	100855	0.000075712	1
34	100883	0.000075728	1
34	100926	0.00007576	1
34	100961	0.000075776	1
34	101000	0.000075792	1
34	101032	0.000075808	1
34	101074	0.00007584	1
34	101101	0.000075856	1
34	101120	0.000075872	1
34	101148	0.000075888	1
34	101192	0.00007592	1
34	101219	0.000075936	1
34	101238	0.000075952	1
34	101266	0.000075968	1
34	101306	0.000076	1
34	101333	0.000076016	1
34	101360	0.000076032	1
34	101405	0.000076048	1
34	101445	0.00007608	1
34	101472	0.000076096	1
34	101491	0.000076112	1
34	101519	0.000076128	1
34	101559	0.00007616	1
34	101590	0.000076176	1
34	101609	0.000076192	1
34	101637	0.000076208	1
34	101680	0.00007624	1
34	101707	0.000076256	1
34	101726	0.000076272	1
34	101766	0.000076288	1
34	101825	0.00007632	1
34	101852	0.000076336	1
34	101871	0.000076352	1
34	101899	0.000076368	1
34	101943	0.0000764	1
34	101970	0.000076416	1
34	101989	0.000076432	1
34	102017	0.000076448	1
34	102057	0.00007648	1
34	102084	0.000076496	1
34	102103	0.000076512	1
34	102131	0.000076528	1
34	102202	0.000076561	1
34	102229	0.000076577	1
34	102248	0.000076593	1
34	102276	0.000076609	1
34	102304	0.000076625	1
34	102348	0.000076661	1
34	102375	0.000076677	1
34	102394	0.000076693	1
34	102425	0.000076709	1
34	102453	0.000076725	1
34	102498	0.000076761	1
34	102525	0.000076777	1
34	102544	0.000076793	1
34	102602	0.000076809	1
34	102630	0.000076825	1
34	102674	0.00007686	1
34	102701	0.000076876	1
34	102720	0.000076892	1
34	102748	0.000076908	1
34	102788	0.00007694	1
34	102815	0.000076956	1
34	102834	0.000076972	1
34	102862	0.000076988	1
34	102902	0.00007702	1
34	102929	0.000077036	1
34	102948	0.000077052	1
34	103004	0.000077068	1
34	103044	0.0000771	1
34	103071	0.000077116	1
34	103090	0.000077132	1
34	103122	0.000077148	1
34	103165	0.00007718	1
34	103192	0.000077196	1
34	103211	0.000077212	1
34	103239	0.000077228	1
34	103283	0.00007726	1
34	103312	0.000077276	1
34	103331	0.000077292	1
34	103359	0.000077308	1
34	103428	0.00007734	1
34	103455	0.000077356	1
34	103474	0.000077372	1
34	103502	0.000077388	1
34	103542	0.00007742	1
34	103569	0.000077436	1
34	103588	0.000077452	1
34	103616	0.000077468	1
34	103656	0.0000775	1
34	103683	0.000077516	1
34	103702	0.000077532	1
34	103730	0.000077548	1
34	103795	0.00007758	1
34	103822	0.000077596	1
34	103841	0.000077612	1
34	103873	0.000077628	1
34	103916	0.00007766	1
34	103943	0.000077676	1
34	103962	0.000077692	1
34	103990	0.000077708	1
34	104034	0.00007774	1
34	104063	0.000077756	1
34	104082	0.000077772	1
34	104110	0.000077788	1
34	104154	0.00007782	1
34	104212	0.000077836	1
34	104231	0.000077852	1
34	104259	0.000077868	1
34	104299	0.0000779	1
34	104326	0.000077916	1
34	104345	0.000077932	1
34	104373	0.000077948	1
34	104413	0.00007798	1
34	104440	0.000077996	1
34	104459	0.000078012	1
34	104487	0.000078028	1
34	104527	0.00007806	1
34	104554	0.000078076	1
34	104601	0.000078092	1
34	104633	0.000078108	1
34	104676	0.00007814	1
34	104703	0.000078156	1
34	104722	0.000078172	1
34	104750	0.000078188	1
34	104794	0.00007822	1
34	104823	0.000078236	1
34	104842	0.000078252	1
34	104870	0.000078268	1
34	104914	0.0000783	1
34	104941	0.000078316	1
34	104960	0.000078332	1
34	105016	0.000078348	1
34	105056	0.00007838	1
34	105083	0.000078396	1
34	105102	0.000078412	1
34	105130	0.000078428	1
34	105170	0.00007846	1
34	105197	0.000078476	1
34	105216	0.000078492	1
34	105244	0.000078508	1
34	105284	0.00007854	1
34	105311	0.000078556	1
34	105330	0.000078572	1
34	105362	0.000078588	1
34	105430	0.00007862	1
34	105457	0.000078636	1
34	105476	0.000078652	1
34	105504	0.000078668	1
34	105548	0.0000787	1
34	105577	0.000078716	1
34	105596	0.000078732	1
34	105624	0.000078748	1
34	105668	0.00007878	1
34	105695	0.000078796	1
34	105714	0.000078812	1
34	105742	0.000078828	1
34	105807	0.00007886	1
34	105834	0.000078876	1
34	105853	0.000078892	1
34	105881	0.000078908	1
34	105921	0.00007894	1
34	105948	0.000078956	1
34	105967	0.000078972	1
34	105995	0.000078988	1
34	106035	0.00007902	1
34	106062	0.000079036	1
34	106081	0.000079052	1
34	106113	0.000079068	1
34	106156	0.0000791	1
34	106214	0.000079116	1
34	106233	0.000079132	1
34	106261	0.000079148	1
34	106305	0.00007918	1
34	106334	0.000079196	1
34	106353	0.000079212	1
34	106381	0.000079228	1
34	106425	0.00007926	1
34	106452	0.000079276	1
34	106471	0.000079292	1
34	106499	0.000079308	1
34	106539	0.00007934	1
34	106566	0.000079356	1
34	106613	0.000079372	1
34	106641	0.000079388	1
34	106681	0.00007942	1
34	106708	0.000079436	1
34	106727	0.000079452	1
34	106755	0.000079468	1
34	106795	0.0000795	1
34	106822	0.000079516	1
34	106841	0.000079532	1
34	106873	0.000079548	1
34	106916	0.00007958	1
34	106943	0.000079596	1
34	106962	0.000079612	1
34	107018	0.000079628	1
34	107062	0.00007966	1
34	107091	0.000079676	1
34	107110	0.000079692	1
34	107138	0.000079708	1
34	107182	0.00007974	1
34	107209	0.000079756	1
34	107228	0.000079772	1
34	107256	0.000079788	1
34	107296	0.00007982	1
34	107323	0.000079836	1
34	107342	0.000079852	1
34	107370	0.000079868	1
34	107435	0.0000799	1
34	107462	0.000079916	1
34	107481	0.000079932	1
34	107509	0.000079948	1
34	107549	0.00007998	1
34	107576	0.000079996	1
34	107595	0.000080012	1
34	107627	0.000080028	1
34	107670	0.00008006	1
34	107697	0.000080076	1
34	107716	0.000080092	1
34	107744	0.000080108	1
34	107813	0.00008014	1
34	107842	0.000080156	1
34	107861	0.000080172	1
34	107889	0.000080188	1
34	107933	0.00008022	1
34	107960	0.000080236	1
34	107979	0.000080252	1
34	108007	0.000080268	1
34	108047	0.0000803	1
34	108074	0.000080316	1
34	108093	0.000080332	1
34	108121	0.000080348	1
34	108161	0.00008038	1
34	108220	0.000080396	1
34	108239	0.000080412	1
34	108266	0.000080428	1
34	108306	0.00008046	1
34	108332	0.000080476	1
34	108351	0.000080492	1
34	108377	0.000080508	1
34	108409	0.00008054	1
34	108426	0.000080556	1
34	108437	0.000080572	1
34	108453	0.000080588	1
34	108475	0.00008062	1
34	108489	0.000080636	1
34	108525	0.000080652	1
34	108533	0.000080668	1
34	108547	0.0000807	1
34	108775	0.000081625	1
34	108802	0.000081641	1
34	108821	0.000081657	1
34	108877	0.000081673	1
34	108905	0.000081689	1
34	108945	0.000081724	1
34	108972	0.00008174	1
34	108991	0.000081756	1
34	109019	0.000081772	1
34	109059	0.000081804	1
34	109086	0.00008182	1
34	109105	0.000081836	1
34	109133	0.000081852	1
34	109177	0.000081884	1
34	109204	0.0000819	1
34	109223	0.000081916	1
34	109282	0.000081932	1
34	109322	0.000081964	1
34	109353	0.00008198	1
34	109372	0.000081996	1
34	109400	0.000082012	1
34	109442	0.000082044	1
34	109469	0.00008206	1
34	109488	0.000082076	1
34	109520	0.000082092	1
34	109560	0.000082124	1
34	109587	0.00008214	1
34	109606	0.000082156	1
34	109634	0.000082172	1
34	109699	0.000082204	1
34	109726	0.00008222	1
34	109745	0.000082236	1
34	109773	0.000082252	1
34	109813	0.000082284	1
34	109840	0.0000823	1
34	109859	0.000082316	1
34	109887	0.000082332	1
34	109931	0.000082364	1
34	109958	0.00008238	1
34	109977	0.000082396	1
34	110008	0.000082412	1
34	110073	0.000082444	1
34	110104	0.00008246	1
34	110123	0.000082476	1
34	110151	0.000082492	1
34	110193	0.000082524	1
34	110220	0.00008254	1
34	110239	0.000082556	1
34	110271	0.000082572	1
34	110311	0.000082604	1
34	110338	0.00008262	1
34	110357	0.000082636	1
34	110385	0.000082652	1
34	110425	0.000082684	1
34	110483	0.0000827	1
34	110502	0.000082716	1
34	110530	0.000082732	1
34	110570	0.000082764	1
34	110597	0.00008278	1
34	110616	0.000082796	1
34	110644	0.000082812	1
34	110688	0.000082844	1
34	110715	0.00008286	1
34	110734	0.000082876	1
34	110765	0.000082892	1
34	110805	0.000082924	1
34	110836	0.00008294	1
34	110883	0.000082956	1
34	110911	0.000082972	1
34	110953	0.000083004	1
34	110980	0.00008302	1
34	110999	0.000083036	1
34	111031	0.000083052	1
34	111071	0.000083084	1
34	111098	0.0000831	1
34	111117	0.000083116	1
34	111145	0.000083132	1
34	111185	0.000083164	1
34	111212	0.00008318	1
34	111231	0.000083196	1
34	111287	0.000083212	1
34	111327	0.000083244	1
34	111354	0.00008326	1
34	111373	0.000083276	1
34	111401	0.000083292	1
34	111445	0.000083324	1
34	111472	0.00008334	1
34	111491	0.000083356	1
34	111522	0.000083372	1
34	111562	0.000083404	1
34	111593	0.00008342	1
34	111612	0.000083436	1
34	111640	0.000083452	1
34	111707	0.000083484	1
34	111734	0.0000835	1
34	111753	0.000083516	1
34	111785	0.000083532	1
34	111825	0.000083564	1
34	111852	0.00008358	1
34	111871	0.000083596	1
34	111899	0.000083612	1
34	111939	0.000083644	1
34	111966	0.00008366	1
34	111985	0.000083676	1
34	112013	0.000083692	1
34	112078	0.000083724	1
34	112105	0.00008374	1
34	112124	0.000083756	1
34	112152	0.000083772	1
34	112196	0.000083804	1
34	112223	0.00008382	1
34	112242	0.000083836	1
34	112273	0.000083852	1
34	112313	0.000083884	1
34	112344	0.0000839	1
34	112363	0.000083916	1
34	112391	0.000083932	1
34	112433	0.000083964	1
34	112491	0.00008398	1
34	112510	0.000083996	1
34	112542	0.000084012	1
34	112582	0.000084044	1
34	112609	0.00008406	1
34	112628	0.000084076	1
34	112656	0.000084092	1
34	112696	0.000084124	1
34	112723	0.00008414	1
34	112742	0.000084156	1
34	112770	0.000084172	1
34	112810	0.000084204	1
34	112837	0.00008422	1
34	112884	0.000084236	1
34	112912	0.000084252	1
34	112956	0.000084284	1
34	112983	0.0000843	1
34	113002	0.000084316	1
34	113033	0.000084332	1
34	113073	0.000084364	1
34	113104	0.00008438	1
34	113123	0.000084396	1
34	113151	0.000084412	1
34	113193	0.000084444	1
34	113220	0.00008446	1
34	113239	0.000084476	1
34	113299	0.000084492	1
34	113339	0.000084524	1
34	113366	0.00008454	1
34	113385	0.000084556	1
34	113413	0.000084572	1
34	113453	0.000084604	1
34	113480	0.00008462	1
34	113499	0.000084636	1
34	113527	0.000084652	1
34	113567	0.000084684	1
34	113594	0.0000847	1
34	113613	0.000084716	1
34	113641	0.000084732	1
34	113710	0.000084764	1
34	113737	0.00008478	1
34	113756	0.000084796	1
34	113787	0.000084812	1
34	113827	0.000084844	1
34	113858	0.00008486	1
34	113877	0.000084876	1
34	113905	0.000084892	1
34	113947	0.000084924	1
34	113974	0.00008494	1
34	113993	0.000084956	1
34	114025	0.000084972	1
34	114090	0.000085004	1
34	114117	0.00008502	1
34	114136	0.000085036	1
34	114164	0.000085052	1
34	114204	0.000085084	1
34	114231	0.0000851	1
34	114250	0.000085116	1
34	114278	0.000085132	1
34	114318	0.000085164	1
34	114345	0.00008518	1
34	114364	0.000085196	1
34	114392	0.000085212	1
34	114436	0.000085244	1
34	114494	0.00008526	1
34	114513	0.000085276	1
34	114544	0.000085292	1
34	114584	0.000085324	1
34	114615	0.00008534	1
34	114634	0.000085356	1
34	114662	0.000085372	1
34	114704	0.000085404	1
34	114731	0.00008542	1
34	114750	0.000085436	1
34	114782	0.000085452	1
34	114822	0.000085484	1
34	114849	0.0000855	1
34	114896	0.000085516	1
34	114924	0.000085532	1
34	114964	0.000085564	1
34	114991	0.00008558	1
34	115010	0.000085596	1
34	115038	0.000085612	1
34	115078	0.000085644	1
34	115105	0.00008566	1
34	115124	0.000085676	1
34	115152	0.000085692	1
34	115196	0.000085724	1
34	115223	0.00008574	1
34	115242	0.000085756	1
34	115301	0.000085772	1
34	115341	0.000085804	1
34	115372	0.00008582	1
34	115391	0.000085836	1
34	115419	0.000085852	1
34	115461	0.000085884	1
34	115488	0.0000859	1
34	115507	0.000085916	1
34	115539	0.000085932	1
34	115579	0.000085964	1
34	115606	0.00008598	1
34	115625	0.000085996	1
34	115653	0.000086012	1
34	115718	0.000086044	1
34	115745	0.00008606	1
34	115764	0.000086076	1
34	115792	0.000086092	1
34	115832	0.000086124	1
34	115859	0.00008614	1
34	115878	0.000086156	1
34	115906	0.000086172	1
34	115950	0.000086204	1
34	115977	0.00008622	1
34	115996	0.000086236	1
34	116027	0.000086252	1
34	116092	0.000086284	1
34	116123	0.0000863	1
34	116142	0.000086316	1
34	116170	0.000086332	1
34	116212	0.000086364	1
34	116239	0.00008638	1
34	116258	0.000086396	1
34	116290	0.000086412	1
34	116330	0.000086444	1
34	116357	0.00008646	1
34	116376	0.000086476	1
34	116404	0.000086492	1
34	116444	0.000086524	1
34	116502	0.00008654	1
34	116521	0.000086556	1
34	116549	0.000086572	1
34	116590	0.000086604	1
34	116616	0.00008662	1
34	116635	0.000086636	1
34	116663	0.000086652	1
34	116705	0.000086684	1
34	116726	0.0000867	1
34	116738	0.000086716	1
34	116761	0.000086732	1
34	116783	0.000086764	1
34	116803	0.00008678	1
34	116839	0.000086796	1
34	116851	0.000086812	1
34	116867	0.000086844	1
34	116875	0.00008686	1
34	116882	0.000086876	1
34	117126	0.000087808	1
34	117173	0.000087824	1
34	117192	0.00008784	1
34	117220	0.000087856	1
34	117260	0.000087888	1
34	117287	0.000087904	1
34	117306	0.00008792	1
34	117334	0.000087936	1
34	117374	0.000087968	1
34	117401	0.000087984	1
34	117420	0.000088	1
34	117448	0.000088016	1
34	117488	0.000088048	1
34	117527	0.000088064	1
34	117566	0.00008808	1
34	117594	0.000088096	1
34	117637	0.000088128	1
34	117664	0.000088144	1
34	117683	0.00008816	1
34	117715	0.000088176	1
34	117757	0.000088208	1
34	117784	0.000088224	1
34	117803	0.00008824	1
34	117831	0.000088256	1
34	117875	0.000088288	1
34	117902	0.000088304	1
34	117929	0.00008832	1
34	117974	0.000088336	1
34	118014	0.000088368	1
34	118041	0.000088384	1
34	118060	0.0000884	1
34	118088	0.000088416	1
34	118128	0.000088448	1
34	118155	0.000088464	1
34	118174	0.00008848	1
34	118202	0.000088496	1
34	118242	0.000088528	1
34	118273	0.000088544	1
34	118292	0.00008856	1
34	118328	0.000088576	1
