version 2
run General-0-20190925-12:46:47-18020
attr configname General
attr datetime 20190925-12:46:47
attr experiment General
attr inifile is1_3h_2s.ini
attr iterationvars ""
attr iterationvarsf ""
attr measurement ""
attr network ib_model.examples.is1_3h_2s.p2p_3h_2s
attr processid 18020
attr repetition 0
attr replication #0
attr resultdir results
attr runnumber 0
attr seedset 0
param **.startStatCol 200us
param **.flitSize 64B
param **.dstMode "\"param\""
param **H_1**.dstLid 3
param **H_2**.dstLid 0
param **H_3**.dstLid 0
param **.app.dstSeqVecFile "\"\""
param **.app.dstSeqVecIdx 0
param **.msgLenMode "\"param\""
param **.msgMtuLen 1500B
param **.msgLength 16384B
param **.msgLenSet "\"1152 2048 4096\""
param **.msgLenProb "\"1 1 1 1\""
param **.msg2msgGap 0us
param **.msgSQ 0
param **.maxContPkts 10
param **.popDlyPerByte 0.25ns
param **.genDlyPerByte 0.25ns
param **.maxQueuedPerVL 4
param **.flit2FlitGap 0.001ns
param **.pkt2PktGap 0.001ns
param **ibuf.maxBeingSent 3
param **ibuf.maxStatic0 200
param **ibuf.totalBufferSize 1000
param **.SW**.fdbsVecFile "\"3h_2s.fdbs\""
param **.SW_1**.fdbIndex 0
param **.SW_2**.fdbIndex 1
param **.pktFwdType "\"Pktfwd\""
param **.width 4
param **.speed 10Gbps
param **.maxVL 0
param **.sink.hiccupDuration 0.001us
param **.sink.hiccupDelay 10000us
param **.sink.repFirstPackets 0
param **.obuf.credMinTime 0.256us
param **SW**.obuf.size 78
param **H_**.obuf.size 36
param **.obuf.width 4
param **.ibuf.maxStatic* 200
param **.ibuf.lossyMode false
param **.ISWDelay 50ns
param **.VSWDelay 50ns
param **.vlarb.width 4
param **SW**.vlarb.coreFreq 250MHz
param **H_**.vlarb.coreFreq 200MHz
param **SW**.vlarb.busWidth 24B
param **H_**.vlarb.busWidth 16B
param **.vlarb.vlHighLimit 16
param **.vlarb.highVLArbEntries "\"0:1 1:20 2:40 3:80\""
param **.vlarb.lowVLArbEntries "\"0:1 1:20 2:40 3:80\""
param **.vlarb.useFCFSRQArb false
param **.pktfwd.AdaptMode "\"none\""
param **.pktfwd.LIDBindTime 2us
param **.pktfwd.TQBusy1Thd 20
param **.pktfwd.TQBusy2Thd 40
param **.pktfwd.TQBusy3Thd 80
param **.pktfwd.ARAdaptThd 4
param **.pktfwd.OPSelAlgo "\"greedy\""
param **.pktfwd.GreedyRandSize 3
param **.pktfwd.statRepTime 10us
param **.pktfwd.OPSelOffsetByDLID 0
param **.gen.genDlyPerByte 0.3077ns
param **.sink.popDlyPerByte 0.3077ns

vector 0 p2p_3h_2s.SW_2.isw_port[0].vlarb "free credits on VL0" ETV
vector 1 p2p_3h_2s.SW_2.isw_port[0].vlarb "Binary coded VL's with data" ETV
vector 2 p2p_3h_2s.SW_2.isw_port[0].vlarb "arbitrated VL" ETV
vector 3 p2p_3h_2s.SW_2.isw_port[1].vlarb "free credits on VL0" ETV
vector 4 p2p_3h_2s.SW_2.isw_port[1].vlarb "Binary coded VL's with data" ETV
vector 5 p2p_3h_2s.SW_2.isw_port[1].vlarb "arbitrated VL" ETV
vector 6 p2p_3h_2s.SW_1.isw_port[0].vlarb "free credits on VL0" ETV
vector 7 p2p_3h_2s.SW_1.isw_port[0].vlarb "Binary coded VL's with data" ETV
vector 8 p2p_3h_2s.SW_1.isw_port[0].vlarb "arbitrated VL" ETV
vector 9 p2p_3h_2s.H_3.vlarb "free credits on VL0" ETV
vector 10 p2p_3h_2s.H_3.vlarb "Binary coded VL's with data" ETV
vector 11 p2p_3h_2s.H_3.vlarb "arbitrated VL" ETV
vector 12 p2p_3h_2s.SW_2.isw_port[2].vlarb "free credits on VL0" ETV
vector 13 p2p_3h_2s.SW_2.isw_port[2].vlarb "Binary coded VL's with data" ETV
vector 14 p2p_3h_2s.SW_2.isw_port[2].vlarb "arbitrated VL" ETV
vector 15 p2p_3h_2s.H_1.vlarb "free credits on VL0" ETV
vector 16 p2p_3h_2s.H_1.vlarb "Binary coded VL's with data" ETV
vector 17 p2p_3h_2s.H_1.vlarb "arbitrated VL" ETV
vector 18 p2p_3h_2s.H_2.vlarb "free credits on VL0" ETV
vector 19 p2p_3h_2s.H_2.vlarb "Binary coded VL's with data" ETV
vector 20 p2p_3h_2s.H_2.vlarb "arbitrated VL" ETV
vector 21 p2p_3h_2s.SW_1.isw_port[1].vlarb "free credits on VL0" ETV
vector 22 p2p_3h_2s.SW_1.isw_port[1].vlarb "Binary coded VL's with data" ETV
vector 23 p2p_3h_2s.SW_1.isw_port[1].vlarb "arbitrated VL" ETV
vector 24 p2p_3h_2s.H_1.obuf "Queue Depth" ETV
vector 25 p2p_3h_2s.H_2.obuf "Queue Depth" ETV
vector 26 p2p_3h_2s.H_3.obuf "Queue Depth" ETV
vector 27 p2p_3h_2s.SW_1.isw_port[0].obuf "Queue Depth" ETV
vector 28 p2p_3h_2s.SW_1.isw_port[1].obuf "Queue Depth" ETV
vector 29 p2p_3h_2s.SW_2.isw_port[0].obuf "Queue Depth" ETV
vector 30 p2p_3h_2s.SW_2.isw_port[1].obuf "Queue Depth" ETV
vector 31 p2p_3h_2s.SW_2.isw_port[2].obuf "Queue Depth" ETV
vector 32 p2p_3h_2s.SW_2.isw_port[0].ibuf "static credits used" ETV
0	38	0.000000001	200
1	38	0.000000001	0
2	38	0.000000001	-1
3	40	0.000000001	200
4	40	0.000000001	0
5	40	0.000000001	-1
6	42	0.000000001	200
7	42	0.000000001	0
8	42	0.000000001	-1
9	44	0.000000001	200
10	44	0.000000001	0
11	44	0.000000001	-1
12	46	0.000000001	200
12	92	0.000000066	200
12	101	0.000000076667	199
12	104	0.000000086	199
12	114	0.000000096667	198
13	46	0.000000001	0
13	92	0.000000066	10
13	101	0.000000076667	0
13	104	0.000000086	10
13	114	0.000000096667	0
14	46	0.000000001	-1
14	92	0.000000066	10
14	104	0.000000086	10
15	48	0.000000001	200
15	68	0.000000016	200
15	77	0.000000036	199
15	85	0.000000056	198
15	96	0.000000076	197
15	108	0.000000096	196
16	48	0.000000001	0
16	68	0.000000016	10
16	77	0.000000036	10
16	85	0.000000056	10
16	96	0.000000076	10
16	108	0.000000096	10
17	48	0.000000001	-1
17	68	0.000000016	10
17	77	0.000000036	10
17	85	0.000000056	10
17	96	0.000000076	10
17	108	0.000000096	10
18	50	0.000000001	200
19	50	0.000000001	0
20	50	0.000000001	-1
21	52	0.000000001	200
22	52	0.000000001	0
23	52	0.000000001	-1
24	54	0.00000000166	0
24	74	0.00000002128	0
24	82	0.00000004128	0
24	90	0.00000006128	0
24	103	0.00000008128	0
25	55	0.00000000166	0
26	56	0.00000000166	0
27	57	0.00000000166	0
28	58	0.00000000166	0
29	59	0.00000000166	0
30	60	0.00000000166	0
31	61	0.00000000166	0
32	93	0.000000066	3
32	105	0.000000086	3
vector 33 p2p_3h_2s.SW_1.isw_port[1].ibuf "static credits used" ETV
vector 34 p2p_3h_2s.H_3.ibuf "static credits used" ETV
0	633	0.00000048128	200
0	728	0.000000526	200
0	1390	0.00000096128	200
0	1457	0.000001006	200
0	2144	0.00000144128	200
0	2211	0.000001486	200
0	2904	0.00000192128	200
0	2971	0.000001966	200
0	3661	0.00000240128	200
0	3728	0.000002446	200
0	4418	0.00000288128	200
0	4485	0.000002926	200
0	5175	0.00000336128	200
0	5242	0.000003406	200
0	5926	0.00000384128	200
0	5996	0.000003886	200
0	6661	0.00000432128	200
0	6756	0.000004366	200
0	7418	0.00000480128	200
0	7485	0.000004846	200
0	8113	0.00000524128	200
0	8163	0.000005286	200
1	633	0.00000048128	0
1	728	0.000000526	0
1	1390	0.00000096128	0
1	1457	0.000001006	0
1	2144	0.00000144128	0
1	2211	0.000001486	0
1	2904	0.00000192128	0
1	2971	0.000001966	0
1	3661	0.00000240128	0
1	3728	0.000002446	0
1	4418	0.00000288128	0
1	4485	0.000002926	0
1	5175	0.00000336128	0
1	5242	0.000003406	0
1	5926	0.00000384128	0
1	5996	0.000003886	0
1	6661	0.00000432128	0
1	6756	0.000004366	0
1	7418	0.00000480128	0
1	7485	0.000004846	0
1	8113	0.00000524128	0
1	8163	0.000005286	0
2	633	0.00000048128	-1
2	728	0.000000526	-1
2	1390	0.00000096128	-1
2	1457	0.000001006	-1
2	2144	0.00000144128	-1
2	2211	0.000001486	-1
2	2904	0.00000192128	-1
2	2971	0.000001966	-1
2	3661	0.00000240128	-1
2	3728	0.000002446	-1
2	4418	0.00000288128	-1
2	4485	0.000002926	-1
2	5175	0.00000336128	-1
2	5242	0.000003406	-1
2	5926	0.00000384128	-1
2	5996	0.000003886	-1
2	6661	0.00000432128	-1
2	6756	0.000004366	-1
2	7418	0.00000480128	-1
2	7485	0.000004846	-1
2	8113	0.00000524128	-1
2	8163	0.000005286	-1
3	729	0.000000526	200
3	1458	0.000001006	200
3	2212	0.000001486	200
3	2972	0.000001966	200
3	3729	0.000002446	200
3	4486	0.000002926	200
3	5243	0.000003406	200
3	5997	0.000003886	200
3	6757	0.000004366	200
3	7486	0.000004846	200
3	8164	0.000005286	200
4	729	0.000000526	0
4	1458	0.000001006	0
4	2212	0.000001486	0
4	2972	0.000001966	0
4	3729	0.000002446	0
4	4486	0.000002926	0
4	5243	0.000003406	0
4	5997	0.000003886	0
4	6757	0.000004366	0
4	7486	0.000004846	0
4	8164	0.000005286	0
5	729	0.000000526	-1
5	1458	0.000001006	-1
5	2212	0.000001486	-1
5	2972	0.000001966	-1
5	3729	0.000002446	-1
5	4486	0.000002926	-1
5	5243	0.000003406	-1
5	5997	0.000003886	-1
5	6757	0.000004366	-1
5	7486	0.000004846	-1
5	8164	0.000005286	-1
6	165	0.000000166	200
6	181	0.000000176667	199
6	185	0.000000186	199
6	201	0.000000196667	198
6	205	0.000000206	198
6	225	0.000000216667	197
6	231	0.000000226	197
6	253	0.000000236667	196
6	259	0.000000246	196
6	283	0.000000256667	195
6	300	0.000000257	197
6	316	0.00000026228	197
6	321	0.000000266	197
6	341	0.000000276667	196
6	349	0.000000286	196
6	370	0.000000296667	195
6	376	0.000000307	195
6	398	0.000000317667	194
6	404	0.000000326	194
6	427	0.000000336667	193
6	435	0.000000346	193
6	448	0.000000356667	192
6	463	0.000000366	192
6	484	0.000000376667	191
6	490	0.000000386	191
6	512	0.000000396667	190
6	521	0.000000407	190
6	542	0.000000417667	189
6	550	0.000000426	189
6	570	0.000000436667	188
6	578	0.000000446	188
6	595	0.000000456667	187
6	605	0.000000466	187
6	627	0.000000476667	186
6	637	0.000000486	186
6	660	0.000000496667	185
6	668	0.000000506	185
6	716	0.000000516667	197
6	724	0.000000526	197
6	747	0.000000536667	196
6	756	0.000000546	196
6	776	0.000000556667	195
6	782	0.000000566	195
6	805	0.000000576667	194
6	814	0.000000586	194
6	837	0.000000596667	193
6	845	0.000000606	193
6	865	0.000000616667	192
6	874	0.000000626	192
6	896	0.000000636667	191
6	902	0.000000646	191
6	925	0.000000656667	190
6	930	0.000000666	190
6	953	0.000000676667	189
6	965	0.000000686	189
6	985	0.000000696667	188
6	994	0.000000706	188
6	1014	0.000000716667	187
6	1020	0.000000726	187
6	1043	0.000000736667	186
6	1048	0.000000746	186
6	1071	0.000000756667	185
6	1079	0.000000766	185
6	1127	0.000000776667	197
6	1136	0.000000786	197
6	1156	0.000000796667	196
6	1162	0.000000806	196
6	1185	0.000000816667	195
6	1190	0.000000826	195
6	1213	0.000000836667	194
6	1221	0.000000846	194
6	1241	0.000000856667	193
6	1250	0.000000866	193
6	1270	0.000000876667	192
6	1276	0.000000886	192
6	1299	0.000000896667	191
6	1304	0.000000906	191
6	1327	0.000000916667	190
6	1335	0.000000926	190
6	1355	0.000000936667	189
6	1364	0.000000946	189
6	1384	0.000000956667	188
6	1394	0.000000966	188
6	1417	0.000000976667	187
6	1422	0.000000986	187
6	1445	0.000000996667	186
6	1453	0.000001006	186
6	1476	0.000001016667	185
6	1503	0.000001025	198
6	1513	0.000001026	198
6	1533	0.000001036667	197
6	1539	0.000001046	197
6	1562	0.000001056667	196
6	1571	0.000001066	196
6	1594	0.000001076667	195
6	1602	0.000001086	195
6	1622	0.000001096667	194
6	1631	0.000001106	194
6	1653	0.000001116667	193
6	1659	0.000001126	193
6	1682	0.000001136667	192
6	1687	0.000001146	192
6	1710	0.000001156667	191
6	1722	0.000001166	191
6	1742	0.000001176667	190
6	1751	0.000001186	190
6	1771	0.000001196667	189
6	1777	0.000001206	189
6	1800	0.000001216667	188
6	1805	0.000001226	188
6	1828	0.000001236667	187
6	1836	0.000001246	187
6	1856	0.000001256667	186
6	1865	0.000001266	186
6	1885	0.000001276667	185
6	1903	0.000001281	197
6	1916	0.000001286	197
6	1939	0.000001296667	196
6	1944	0.000001306	196
6	1967	0.000001316667	195
6	1975	0.000001326	195
6	1995	0.000001336667	194
6	2004	0.000001346	194
6	2024	0.000001356667	193
6	2030	0.000001366	193
6	2053	0.000001376667	192
6	2058	0.000001386	192
6	2081	0.000001396667	191
6	2089	0.000001406	191
6	2109	0.000001416667	190
6	2118	0.000001426	190
6	2138	0.000001436667	189
6	2148	0.000001446	189
6	2171	0.000001456667	188
6	2176	0.000001466	188
6	2199	0.000001476667	187
6	2207	0.000001486	187
6	2230	0.000001496667	186
6	2239	0.000001506	186
6	2259	0.000001516667	185
6	2265	0.000001526	185
6	2289	0.000001536667	184
6	2305	0.000001537	197
6	2321	0.00000154228	197
6	2328	0.000001546	197
6	2351	0.000001556667	196
6	2359	0.000001566	196
6	2379	0.000001576667	195
6	2388	0.000001587	195
6	2410	0.000001597667	194
6	2416	0.000001606	194
6	2439	0.000001616667	193
6	2444	0.000001626	193
6	2460	0.000001636667	192
6	2479	0.000001646	192
6	2499	0.000001656667	191
6	2508	0.000001666	191
6	2528	0.000001676667	190
6	2536	0.000001687	190
6	2557	0.000001697667	189
6	2562	0.000001706	189
6	2585	0.000001716667	188
6	2593	0.000001726	188
6	2609	0.000001736667	187
6	2622	0.000001746	187
6	2642	0.000001756667	186
6	2648	0.000001766	186
6	2671	0.000001776667	185
6	2676	0.000001786	185
6	2727	0.000001796667	197
6	2735	0.000001806	197
6	2755	0.000001816667	196
6	2764	0.000001826	196
6	2784	0.000001836667	195
6	2790	0.000001846	195
6	2813	0.000001856667	194
6	2818	0.000001866	194
6	2841	0.000001876667	193
6	2849	0.000001886	193
6	2869	0.000001896667	192
6	2878	0.000001906	192
6	2898	0.000001916667	191
6	2908	0.000001926	191
6	2931	0.000001936667	190
6	2936	0.000001946	190
6	2959	0.000001956667	189
6	2967	0.000001966	189
6	2990	0.000001976667	188
6	2999	0.000001986	188
6	3019	0.000001996667	187
6	3025	0.000002006	187
6	3048	0.000002016667	186
6	3057	0.000002026	186
6	3080	0.000002036667	185
6	3088	0.000002046	185
6	3136	0.000002056667	197
6	3145	0.000002066	197
6	3167	0.000002076667	196
6	3173	0.000002086	196
6	3196	0.000002096667	195
6	3201	0.000002106	195
6	3224	0.000002116667	194
6	3236	0.000002126	194
6	3256	0.000002136667	193
6	3265	0.000002146	193
6	3285	0.000002156667	192
6	3291	0.000002166	192
6	3314	0.000002176667	191
6	3319	0.000002186	191
6	3342	0.000002196667	190
6	3350	0.000002206	190
6	3370	0.000002216667	189
6	3379	0.000002226	189
6	3399	0.000002236667	188
6	3405	0.000002246	188
6	3428	0.000002256667	187
6	3433	0.000002266	187
6	3456	0.000002276667	186
6	3464	0.000002286	186
6	3484	0.000002296667	185
6	3511	0.000002305	198
6	3521	0.000002306	198
6	3541	0.000002316667	197
6	3547	0.000002326	197
6	3570	0.000002336667	196
6	3575	0.000002346	196
6	3598	0.000002356667	195
6	3606	0.000002366	195
6	3626	0.000002376667	194
6	3635	0.000002386	194
6	3655	0.000002396667	193
6	3665	0.000002406	193
6	3688	0.000002416667	192
6	3693	0.000002426	192
6	3716	0.000002436667	191
6	3724	0.000002446	191
6	3747	0.000002456667	190
6	3756	0.000002466	190
6	3776	0.000002476667	189
6	3782	0.000002486	189
6	3805	0.000002496667	188
6	3814	0.000002506	188
6	3837	0.000002516667	187
6	3845	0.000002526	187
6	3865	0.000002536667	186
6	3874	0.000002546	186
6	3896	0.000002556667	185
6	3914	0.000002561	197
6	3927	0.000002566	197
6	3950	0.000002576667	196
6	3955	0.000002586	196
6	3978	0.000002596667	195
6	3990	0.000002606	195
6	4010	0.000002616667	194
6	4019	0.000002626	194
6	4039	0.000002636667	193
6	4045	0.000002646	193
6	4068	0.000002656667	192
6	4073	0.000002666	192
6	4096	0.000002676667	191
6	4104	0.000002686	191
6	4124	0.000002696667	190
6	4133	0.000002706	190
6	4153	0.000002716667	189
6	4159	0.000002726	189
6	4182	0.000002736667	188
6	4187	0.000002746	188
6	4210	0.000002756667	187
6	4218	0.000002766	187
6	4238	0.000002776667	186
6	4247	0.000002786	186
6	4267	0.000002796667	185
6	4273	0.000002806	185
6	4297	0.000002816667	184
6	4313	0.000002817	197
6	4329	0.00000282228	197
6	4332	0.000002826	197
6	4355	0.000002836667	196
6	4363	0.000002846	196
6	4383	0.000002856667	195
6	4392	0.000002867	195
6	4412	0.000002877667	194
6	4422	0.000002886	194
6	4445	0.000002896667	193
6	4450	0.000002906	193
6	4466	0.000002916667	192
6	4481	0.000002926	192
6	4504	0.000002936667	191
6	4513	0.000002946	191
6	4533	0.000002956667	190
6	4541	0.000002967	190
6	4562	0.000002977667	189
6	4571	0.000002986	189
6	4594	0.000002996667	188
6	4602	0.000003006	188
6	4618	0.000003016667	187
6	4631	0.000003026	187
6	4653	0.000003036667	186
6	4659	0.000003046	186
6	4682	0.000003056667	185
6	4687	0.000003066	185
6	4738	0.000003076667	197
6	4750	0.000003086	197
6	4770	0.000003096667	196
6	4779	0.000003106	196
6	4799	0.000003116667	195
6	4805	0.000003126	195
6	4828	0.000003136667	194
6	4833	0.000003146	194
6	4856	0.000003156667	193
6	4864	0.000003166	193
6	4884	0.000003176667	192
6	4893	0.000003186	192
6	4913	0.000003196667	191
6	4919	0.000003206	191
6	4942	0.000003216667	190
6	4947	0.000003226	190
6	4970	0.000003236667	189
6	4978	0.000003246	189
6	4998	0.000003256667	188
6	5007	0.000003266	188
6	5027	0.000003276667	187
6	5033	0.000003286	187
6	5056	0.000003296667	186
6	5061	0.000003306	186
6	5084	0.000003316667	185
6	5092	0.000003326	185
6	5140	0.000003336667	197
6	5149	0.000003346	197
6	5169	0.000003356667	196
6	5179	0.000003366	196
6	5202	0.000003376667	195
6	5207	0.000003386	195
6	5230	0.000003396667	194
6	5238	0.000003406	194
6	5261	0.000003416667	193
6	5270	0.000003426	193
6	5290	0.000003436667	192
6	5296	0.000003446	192
6	5319	0.000003456667	191
6	5328	0.000003466	191
6	5351	0.000003476667	190
6	5359	0.000003486	190
6	5379	0.000003496667	189
6	5388	0.000003506	189
6	5410	0.000003516667	188
6	5416	0.000003526	188
6	5439	0.000003536667	187
6	5444	0.000003546	187
6	5467	0.000003556667	186
6	5479	0.000003566	186
6	5499	0.000003576667	185
6	5526	0.000003585	198
6	5536	0.000003586	198
6	5556	0.000003596667	197
6	5562	0.000003606	197
6	5585	0.000003616667	196
6	5590	0.000003626	196
6	5613	0.000003636667	195
6	5621	0.000003646	195
6	5641	0.000003656667	194
6	5650	0.000003666	194
6	5670	0.000003676667	193
6	5676	0.000003686	193
6	5699	0.000003696667	192
6	5704	0.000003706	192
6	5727	0.000003716667	191
6	5735	0.000003726	191
6	5755	0.000003736667	190
6	5764	0.000003746	190
6	5784	0.000003756667	189
6	5790	0.000003766	189
6	5813	0.000003776667	188
6	5818	0.000003786	188
6	5841	0.000003796667	187
6	5849	0.000003806	187
6	5869	0.000003816667	186
6	5878	0.000003826	186
6	5898	0.000003836667	185
6	5916	0.000003841	197
6	5933	0.000003846	197
6	5956	0.000003856667	196
6	5961	0.000003866	196
6	5984	0.000003876667	195
6	5992	0.000003886	195
6	6015	0.000003896667	194
6	6024	0.000003906	194
6	6044	0.000003916667	193
6	6050	0.000003926	193
6	6073	0.000003936667	192
6	6082	0.000003946	192
6	6105	0.000003956667	191
6	6113	0.000003966	191
6	6133	0.000003976667	190
6	6142	0.000003986	190
6	6164	0.000003996667	189
6	6170	0.000004006	189
6	6193	0.000004016667	188
6	6198	0.000004026	188
6	6221	0.000004036667	187
6	6233	0.000004046	187
6	6253	0.000004056667	186
6	6262	0.000004066	186
6	6282	0.000004076667	185
6	6288	0.000004086	185
6	6312	0.000004096667	184
6	6328	0.000004097	197
6	6344	0.00000410228	197
6	6347	0.000004106	197
6	6370	0.000004116667	196
6	6378	0.000004126	196
6	6398	0.000004136667	195
6	6407	0.000004147	195
6	6427	0.000004157667	194
6	6433	0.000004166	194
6	6456	0.000004176667	193
6	6461	0.000004186	193
6	6477	0.000004196667	192
6	6492	0.000004206	192
6	6512	0.000004216667	191
6	6521	0.000004226	191
6	6541	0.000004236667	190
6	6549	0.000004247	190
6	6570	0.000004257667	189
6	6575	0.000004266	189
6	6598	0.000004276667	188
6	6606	0.000004286	188
6	6622	0.000004296667	187
6	6635	0.000004306	187
6	6655	0.000004316667	186
6	6665	0.000004326	186
6	6688	0.000004336667	185
6	6693	0.000004346	185
6	6744	0.000004356667	197
6	6752	0.000004366	197
6	6775	0.000004376667	196
6	6784	0.000004386	196
6	6804	0.000004396667	195
6	6810	0.000004406	195
6	6833	0.000004416667	194
6	6842	0.000004426	194
6	6865	0.000004436667	193
6	6873	0.000004446	193
6	6893	0.000004456667	192
6	6902	0.000004466	192
6	6924	0.000004476667	191
6	6930	0.000004486	191
6	6953	0.000004496667	190
6	6958	0.000004506	190
6	6981	0.000004516667	189
6	6993	0.000004526	189
6	7013	0.000004536667	188
6	7022	0.000004546	188
6	7042	0.000004556667	187
6	7048	0.000004566	187
6	7071	0.000004576667	186
6	7076	0.000004586	186
6	7099	0.000004596667	185
6	7107	0.000004606	185
6	7155	0.000004616667	197
6	7164	0.000004626	197
6	7184	0.000004636667	196
6	7190	0.000004646	196
6	7213	0.000004656667	195
6	7218	0.000004666	195
6	7241	0.000004676667	194
6	7249	0.000004686	194
6	7269	0.000004696667	193
6	7278	0.000004706	193
6	7298	0.000004716667	192
6	7304	0.000004726	192
6	7327	0.000004736667	191
6	7332	0.000004746	191
6	7355	0.000004756667	190
6	7363	0.000004766	190
6	7383	0.000004776667	189
6	7392	0.000004786	189
6	7412	0.000004796667	188
6	7422	0.000004806	188
6	7445	0.000004816667	187
6	7450	0.000004826	187
6	7473	0.000004836667	186
6	7481	0.000004846	186
6	7504	0.000004856667	185
6	7531	0.000004865	198
6	7541	0.000004866	198
6	7561	0.000004876667	197
6	7567	0.000004886	197
6	7590	0.000004896667	196
6	7599	0.000004906	196
6	7622	0.000004916667	195
6	7630	0.000004926	195
6	7650	0.000004936667	194
6	7659	0.000004946	194
6	7681	0.000004956667	193
6	7687	0.000004966	193
6	7710	0.000004976667	192
6	7715	0.000004986	192
6	7738	0.000004996667	191
6	7750	0.000005006	191
6	7770	0.000005016667	190
6	7779	0.000005026	190
6	7799	0.000005036667	189
6	7805	0.000005046	189
6	7828	0.000005056667	188
6	7833	0.000005066	188
6	7856	0.000005076667	187
6	7864	0.000005086	187
6	7884	0.000005096667	186
6	7893	0.000005106	186
6	7913	0.000005116667	185
6	7931	0.000005121	197
6	7944	0.000005126	197
6	7967	0.000005136667	196
6	7972	0.000005146	196
6	7995	0.000005156667	195
6	8003	0.000005166	195
6	8023	0.000005176667	194
6	8031	0.000005186	194
6	8052	0.000005196667	193
6	8057	0.000005206	193
6	8080	0.000005216667	192
6	8085	0.000005226	192
6	8108	0.000005236667	191
6	8120	0.000005246	191
6	8134	0.000005256667	190
6	8141	0.000005266	190
6	8155	0.000005276667	189
6	8159	0.000005286	189
6	8178	0.000005296667	188
6	8181	0.000005306	188
6	8194	0.000005316667	187
6	8200	0.000005326	187
6	8210	0.000005336667	186
6	8220	0.000005346	186
6	8228	0.000005356667	185
6	8230	0.000005366	185
6	8245	0.000005376667	184
6	8258	0.000005377	197
6	8270	0.00000538228	197
6	8271	0.000005386	197
6	8283	0.000005396667	196
7	165	0.000000166	10
7	181	0.000000176667	0
7	185	0.000000186	10
7	201	0.000000196667	0
7	205	0.000000206	10
7	225	0.000000216667	0
7	231	0.000000226	10
7	253	0.000000236667	0
7	259	0.000000246	10
7	283	0.000000256667	0
7	300	0.000000257	0
7	316	0.00000026228	0
7	321	0.000000266	10
7	341	0.000000276667	0
7	349	0.000000286	10
7	370	0.000000296667	0
7	376	0.000000307	10
7	398	0.000000317667	0
7	404	0.000000326	10
7	427	0.000000336667	0
7	435	0.000000346	10
7	448	0.000000356667	0
7	463	0.000000366	10
7	484	0.000000376667	0
7	490	0.000000386	10
7	512	0.000000396667	0
7	521	0.000000407	10
7	542	0.000000417667	0
7	550	0.000000426	10
7	570	0.000000436667	0
7	578	0.000000446	10
7	595	0.000000456667	0
7	605	0.000000466	10
7	627	0.000000476667	0
7	637	0.000000486	10
7	660	0.000000496667	0
7	668	0.000000506	10
7	716	0.000000516667	0
7	724	0.000000526	10
7	747	0.000000536667	0
7	756	0.000000546	10
7	776	0.000000556667	0
7	782	0.000000566	10
7	805	0.000000576667	0
7	814	0.000000586	10
7	837	0.000000596667	0
7	845	0.000000606	10
7	865	0.000000616667	0
7	874	0.000000626	10
7	896	0.000000636667	0
7	902	0.000000646	10
7	925	0.000000656667	0
7	930	0.000000666	10
7	953	0.000000676667	0
7	965	0.000000686	10
7	985	0.000000696667	0
7	994	0.000000706	10
7	1014	0.000000716667	0
7	1020	0.000000726	10
7	1043	0.000000736667	0
7	1048	0.000000746	10
7	1071	0.000000756667	0
7	1079	0.000000766	10
7	1127	0.000000776667	0
7	1136	0.000000786	10
7	1156	0.000000796667	0
7	1162	0.000000806	10
7	1185	0.000000816667	0
7	1190	0.000000826	10
7	1213	0.000000836667	0
7	1221	0.000000846	10
7	1241	0.000000856667	0
7	1250	0.000000866	10
7	1270	0.000000876667	0
7	1276	0.000000886	10
7	1299	0.000000896667	0
7	1304	0.000000906	10
7	1327	0.000000916667	0
7	1335	0.000000926	10
7	1355	0.000000936667	0
7	1364	0.000000946	10
7	1384	0.000000956667	0
7	1394	0.000000966	10
7	1417	0.000000976667	0
7	1422	0.000000986	10
7	1445	0.000000996667	0
7	1453	0.000001006	10
7	1476	0.000001016667	0
7	1503	0.000001025	0
7	1513	0.000001026	10
7	1533	0.000001036667	0
7	1539	0.000001046	10
7	1562	0.000001056667	0
7	1571	0.000001066	10
7	1594	0.000001076667	0
7	1602	0.000001086	10
7	1622	0.000001096667	0
7	1631	0.000001106	10
7	1653	0.000001116667	0
7	1659	0.000001126	10
7	1682	0.000001136667	0
7	1687	0.000001146	10
7	1710	0.000001156667	0
7	1722	0.000001166	10
7	1742	0.000001176667	0
7	1751	0.000001186	10
7	1771	0.000001196667	0
7	1777	0.000001206	10
7	1800	0.000001216667	0
7	1805	0.000001226	10
7	1828	0.000001236667	0
7	1836	0.000001246	10
7	1856	0.000001256667	0
7	1865	0.000001266	10
7	1885	0.000001276667	0
7	1903	0.000001281	0
7	1916	0.000001286	10
7	1939	0.000001296667	0
7	1944	0.000001306	10
7	1967	0.000001316667	0
7	1975	0.000001326	10
7	1995	0.000001336667	0
7	2004	0.000001346	10
7	2024	0.000001356667	0
7	2030	0.000001366	10
7	2053	0.000001376667	0
7	2058	0.000001386	10
7	2081	0.000001396667	0
7	2089	0.000001406	10
7	2109	0.000001416667	0
7	2118	0.000001426	10
7	2138	0.000001436667	0
7	2148	0.000001446	10
7	2171	0.000001456667	0
7	2176	0.000001466	10
7	2199	0.000001476667	0
7	2207	0.000001486	10
7	2230	0.000001496667	0
7	2239	0.000001506	10
7	2259	0.000001516667	0
7	2265	0.000001526	10
7	2289	0.000001536667	0
7	2305	0.000001537	0
7	2321	0.00000154228	0
7	2328	0.000001546	10
7	2351	0.000001556667	0
7	2359	0.000001566	10
7	2379	0.000001576667	0
7	2388	0.000001587	10
7	2410	0.000001597667	0
7	2416	0.000001606	10
7	2439	0.000001616667	0
7	2444	0.000001626	10
7	2460	0.000001636667	0
7	2479	0.000001646	10
7	2499	0.000001656667	0
7	2508	0.000001666	10
7	2528	0.000001676667	0
7	2536	0.000001687	10
7	2557	0.000001697667	0
7	2562	0.000001706	10
7	2585	0.000001716667	0
7	2593	0.000001726	10
7	2609	0.000001736667	0
7	2622	0.000001746	10
7	2642	0.000001756667	0
7	2648	0.000001766	10
7	2671	0.000001776667	0
7	2676	0.000001786	10
7	2727	0.000001796667	0
7	2735	0.000001806	10
7	2755	0.000001816667	0
7	2764	0.000001826	10
7	2784	0.000001836667	0
7	2790	0.000001846	10
7	2813	0.000001856667	0
7	2818	0.000001866	10
7	2841	0.000001876667	0
7	2849	0.000001886	10
7	2869	0.000001896667	0
7	2878	0.000001906	10
7	2898	0.000001916667	0
7	2908	0.000001926	10
7	2931	0.000001936667	0
7	2936	0.000001946	10
7	2959	0.000001956667	0
7	2967	0.000001966	10
7	2990	0.000001976667	0
7	2999	0.000001986	10
7	3019	0.000001996667	0
7	3025	0.000002006	10
7	3048	0.000002016667	0
7	3057	0.000002026	10
7	3080	0.000002036667	0
7	3088	0.000002046	10
7	3136	0.000002056667	0
7	3145	0.000002066	10
7	3167	0.000002076667	0
7	3173	0.000002086	10
7	3196	0.000002096667	0
7	3201	0.000002106	10
7	3224	0.000002116667	0
7	3236	0.000002126	10
7	3256	0.000002136667	0
7	3265	0.000002146	10
7	3285	0.000002156667	0
7	3291	0.000002166	10
7	3314	0.000002176667	0
7	3319	0.000002186	10
7	3342	0.000002196667	0
7	3350	0.000002206	10
7	3370	0.000002216667	0
7	3379	0.000002226	10
7	3399	0.000002236667	0
7	3405	0.000002246	10
7	3428	0.000002256667	0
7	3433	0.000002266	10
7	3456	0.000002276667	0
7	3464	0.000002286	10
7	3484	0.000002296667	0
7	3511	0.000002305	0
7	3521	0.000002306	10
7	3541	0.000002316667	0
7	3547	0.000002326	10
7	3570	0.000002336667	0
7	3575	0.000002346	10
7	3598	0.000002356667	0
7	3606	0.000002366	10
7	3626	0.000002376667	0
7	3635	0.000002386	10
7	3655	0.000002396667	0
7	3665	0.000002406	10
7	3688	0.000002416667	0
7	3693	0.000002426	10
7	3716	0.000002436667	0
7	3724	0.000002446	10
7	3747	0.000002456667	0
7	3756	0.000002466	10
7	3776	0.000002476667	0
7	3782	0.000002486	10
7	3805	0.000002496667	0
7	3814	0.000002506	10
7	3837	0.000002516667	0
7	3845	0.000002526	10
7	3865	0.000002536667	0
7	3874	0.000002546	10
7	3896	0.000002556667	0
7	3914	0.000002561	0
7	3927	0.000002566	10
7	3950	0.000002576667	0
7	3955	0.000002586	10
7	3978	0.000002596667	0
7	3990	0.000002606	10
7	4010	0.000002616667	0
7	4019	0.000002626	10
7	4039	0.000002636667	0
7	4045	0.000002646	10
7	4068	0.000002656667	0
7	4073	0.000002666	10
7	4096	0.000002676667	0
7	4104	0.000002686	10
7	4124	0.000002696667	0
7	4133	0.000002706	10
7	4153	0.000002716667	0
7	4159	0.000002726	10
7	4182	0.000002736667	0
7	4187	0.000002746	10
7	4210	0.000002756667	0
7	4218	0.000002766	10
7	4238	0.000002776667	0
7	4247	0.000002786	10
7	4267	0.000002796667	0
7	4273	0.000002806	10
7	4297	0.000002816667	0
7	4313	0.000002817	0
7	4329	0.00000282228	0
7	4332	0.000002826	10
7	4355	0.000002836667	0
7	4363	0.000002846	10
7	4383	0.000002856667	0
7	4392	0.000002867	10
7	4412	0.000002877667	0
7	4422	0.000002886	10
7	4445	0.000002896667	0
7	4450	0.000002906	10
7	4466	0.000002916667	0
7	4481	0.000002926	10
7	4504	0.000002936667	0
7	4513	0.000002946	10
7	4533	0.000002956667	0
7	4541	0.000002967	10
7	4562	0.000002977667	0
7	4571	0.000002986	10
7	4594	0.000002996667	0
7	4602	0.000003006	10
7	4618	0.000003016667	0
7	4631	0.000003026	10
7	4653	0.000003036667	0
7	4659	0.000003046	10
7	4682	0.000003056667	0
7	4687	0.000003066	10
7	4738	0.000003076667	0
7	4750	0.000003086	10
7	4770	0.000003096667	0
7	4779	0.000003106	10
7	4799	0.000003116667	0
7	4805	0.000003126	10
7	4828	0.000003136667	0
7	4833	0.000003146	10
7	4856	0.000003156667	0
7	4864	0.000003166	10
7	4884	0.000003176667	0
7	4893	0.000003186	10
7	4913	0.000003196667	0
7	4919	0.000003206	10
7	4942	0.000003216667	0
7	4947	0.000003226	10
7	4970	0.000003236667	0
7	4978	0.000003246	10
7	4998	0.000003256667	0
7	5007	0.000003266	10
7	5027	0.000003276667	0
7	5033	0.000003286	10
7	5056	0.000003296667	0
7	5061	0.000003306	10
7	5084	0.000003316667	0
7	5092	0.000003326	10
7	5140	0.000003336667	0
7	5149	0.000003346	10
7	5169	0.000003356667	0
7	5179	0.000003366	10
7	5202	0.000003376667	0
7	5207	0.000003386	10
7	5230	0.000003396667	0
7	5238	0.000003406	10
7	5261	0.000003416667	0
7	5270	0.000003426	10
7	5290	0.000003436667	0
7	5296	0.000003446	10
7	5319	0.000003456667	0
7	5328	0.000003466	10
7	5351	0.000003476667	0
7	5359	0.000003486	10
7	5379	0.000003496667	0
7	5388	0.000003506	10
7	5410	0.000003516667	0
7	5416	0.000003526	10
7	5439	0.000003536667	0
7	5444	0.000003546	10
7	5467	0.000003556667	0
7	5479	0.000003566	10
7	5499	0.000003576667	0
7	5526	0.000003585	0
7	5536	0.000003586	10
7	5556	0.000003596667	0
7	5562	0.000003606	10
7	5585	0.000003616667	0
7	5590	0.000003626	10
7	5613	0.000003636667	0
7	5621	0.000003646	10
7	5641	0.000003656667	0
7	5650	0.000003666	10
7	5670	0.000003676667	0
7	5676	0.000003686	10
7	5699	0.000003696667	0
7	5704	0.000003706	10
7	5727	0.000003716667	0
7	5735	0.000003726	10
7	5755	0.000003736667	0
7	5764	0.000003746	10
7	5784	0.000003756667	0
7	5790	0.000003766	10
7	5813	0.000003776667	0
7	5818	0.000003786	10
7	5841	0.000003796667	0
7	5849	0.000003806	10
7	5869	0.000003816667	0
7	5878	0.000003826	10
7	5898	0.000003836667	0
7	5916	0.000003841	0
7	5933	0.000003846	10
7	5956	0.000003856667	0
7	5961	0.000003866	10
7	5984	0.000003876667	0
7	5992	0.000003886	10
7	6015	0.000003896667	0
7	6024	0.000003906	10
7	6044	0.000003916667	0
7	6050	0.000003926	10
7	6073	0.000003936667	0
7	6082	0.000003946	10
7	6105	0.000003956667	0
7	6113	0.000003966	10
7	6133	0.000003976667	0
7	6142	0.000003986	10
7	6164	0.000003996667	0
7	6170	0.000004006	10
7	6193	0.000004016667	0
7	6198	0.000004026	10
7	6221	0.000004036667	0
7	6233	0.000004046	10
7	6253	0.000004056667	0
7	6262	0.000004066	10
7	6282	0.000004076667	0
7	6288	0.000004086	10
7	6312	0.000004096667	0
7	6328	0.000004097	0
7	6344	0.00000410228	0
7	6347	0.000004106	10
7	6370	0.000004116667	0
7	6378	0.000004126	10
7	6398	0.000004136667	0
7	6407	0.000004147	10
7	6427	0.000004157667	0
7	6433	0.000004166	10
7	6456	0.000004176667	0
7	6461	0.000004186	10
7	6477	0.000004196667	0
7	6492	0.000004206	10
7	6512	0.000004216667	0
7	6521	0.000004226	10
7	6541	0.000004236667	0
7	6549	0.000004247	10
7	6570	0.000004257667	0
7	6575	0.000004266	10
7	6598	0.000004276667	0
7	6606	0.000004286	10
7	6622	0.000004296667	0
7	6635	0.000004306	10
7	6655	0.000004316667	0
7	6665	0.000004326	10
7	6688	0.000004336667	0
7	6693	0.000004346	10
7	6744	0.000004356667	0
7	6752	0.000004366	10
7	6775	0.000004376667	0
7	6784	0.000004386	10
7	6804	0.000004396667	0
7	6810	0.000004406	10
7	6833	0.000004416667	0
7	6842	0.000004426	10
7	6865	0.000004436667	0
7	6873	0.000004446	10
7	6893	0.000004456667	0
7	6902	0.000004466	10
7	6924	0.000004476667	0
7	6930	0.000004486	10
7	6953	0.000004496667	0
7	6958	0.000004506	10
7	6981	0.000004516667	0
7	6993	0.000004526	10
7	7013	0.000004536667	0
7	7022	0.000004546	10
7	7042	0.000004556667	0
7	7048	0.000004566	10
7	7071	0.000004576667	0
7	7076	0.000004586	10
7	7099	0.000004596667	0
7	7107	0.000004606	10
7	7155	0.000004616667	0
7	7164	0.000004626	10
7	7184	0.000004636667	0
7	7190	0.000004646	10
7	7213	0.000004656667	0
7	7218	0.000004666	10
7	7241	0.000004676667	0
7	7249	0.000004686	10
7	7269	0.000004696667	0
7	7278	0.000004706	10
7	7298	0.000004716667	0
7	7304	0.000004726	10
7	7327	0.000004736667	0
7	7332	0.000004746	10
7	7355	0.000004756667	0
7	7363	0.000004766	10
7	7383	0.000004776667	0
7	7392	0.000004786	10
7	7412	0.000004796667	0
7	7422	0.000004806	10
7	7445	0.000004816667	0
7	7450	0.000004826	10
7	7473	0.000004836667	0
7	7481	0.000004846	10
7	7504	0.000004856667	0
7	7531	0.000004865	0
7	7541	0.000004866	10
7	7561	0.000004876667	0
7	7567	0.000004886	10
7	7590	0.000004896667	0
7	7599	0.000004906	10
7	7622	0.000004916667	0
7	7630	0.000004926	10
7	7650	0.000004936667	0
7	7659	0.000004946	10
7	7681	0.000004956667	0
7	7687	0.000004966	10
7	7710	0.000004976667	0
7	7715	0.000004986	10
7	7738	0.000004996667	0
7	7750	0.000005006	10
7	7770	0.000005016667	0
7	7779	0.000005026	10
7	7799	0.000005036667	0
7	7805	0.000005046	10
7	7828	0.000005056667	0
7	7833	0.000005066	10
7	7856	0.000005076667	0
7	7864	0.000005086	10
7	7884	0.000005096667	0
7	7893	0.000005106	10
7	7913	0.000005116667	0
7	7931	0.000005121	0
7	7944	0.000005126	10
7	7967	0.000005136667	0
7	7972	0.000005146	10
7	7995	0.000005156667	0
7	8003	0.000005166	10
7	8023	0.000005176667	0
7	8031	0.000005186	10
7	8052	0.000005196667	0
7	8057	0.000005206	10
7	8080	0.000005216667	0
7	8085	0.000005226	10
7	8108	0.000005236667	0
7	8120	0.000005246	10
7	8134	0.000005256667	0
7	8141	0.000005266	10
7	8155	0.000005276667	0
7	8159	0.000005286	10
7	8178	0.000005296667	0
7	8181	0.000005306	10
7	8194	0.000005316667	0
7	8200	0.000005326	10
7	8210	0.000005336667	0
7	8220	0.000005346	10
7	8228	0.000005356667	0
7	8230	0.000005366	10
7	8245	0.000005376667	0
7	8258	0.000005377	0
7	8270	0.00000538228	0
7	8271	0.000005386	10
7	8283	0.000005396667	0
8	165	0.000000166	10
8	185	0.000000186	10
8	205	0.000000206	10
8	231	0.000000226	10
8	259	0.000000246	10
8	321	0.000000266	10
8	349	0.000000286	10
8	376	0.000000307	10
8	404	0.000000326	10
8	435	0.000000346	10
8	463	0.000000366	10
8	490	0.000000386	10
8	521	0.000000407	10
8	550	0.000000426	10
8	578	0.000000446	10
8	605	0.000000466	10
8	637	0.000000486	10
8	668	0.000000506	10
8	724	0.000000526	10
8	756	0.000000546	10
8	782	0.000000566	10
8	814	0.000000586	10
8	845	0.000000606	10
8	874	0.000000626	10
8	896	0.000000636667	-1
8	902	0.000000646	10
8	930	0.000000666	10
8	965	0.000000686	10
8	994	0.000000706	10
8	1020	0.000000726	10
8	1048	0.000000746	10
8	1079	0.000000766	10
8	1136	0.000000786	10
8	1162	0.000000806	10
8	1190	0.000000826	10
8	1221	0.000000846	10
8	1250	0.000000866	10
8	1276	0.000000886	10
8	1304	0.000000906	10
8	1335	0.000000926	10
8	1364	0.000000946	10
8	1394	0.000000966	10
8	1422	0.000000986	10
8	1453	0.000001006	10
8	1513	0.000001026	10
8	1539	0.000001046	10
8	1571	0.000001066	10
8	1602	0.000001086	10
8	1631	0.000001106	10
8	1653	0.000001116667	-1
8	1659	0.000001126	10
8	1687	0.000001146	10
8	1722	0.000001166	10
8	1751	0.000001186	10
8	1777	0.000001206	10
8	1805	0.000001226	10
8	1836	0.000001246	10
8	1865	0.000001266	10
8	1916	0.000001286	10
8	1944	0.000001306	10
8	1975	0.000001326	10
8	2004	0.000001346	10
8	2030	0.000001366	10
8	2058	0.000001386	10
8	2089	0.000001406	10
8	2118	0.000001426	10
8	2148	0.000001446	10
8	2176	0.000001466	10
8	2207	0.000001486	10
8	2239	0.000001506	10
8	2265	0.000001526	10
8	2328	0.000001546	10
8	2359	0.000001566	10
8	2388	0.000001587	10
8	2410	0.000001597667	-1
8	2416	0.000001606	10
8	2444	0.000001626	10
8	2479	0.000001646	10
8	2508	0.000001666	10
8	2536	0.000001687	10
8	2562	0.000001706	10
8	2593	0.000001726	10
8	2622	0.000001746	10
8	2648	0.000001766	10
8	2676	0.000001786	10
8	2735	0.000001806	10
8	2764	0.000001826	10
8	2790	0.000001846	10
8	2818	0.000001866	10
8	2849	0.000001886	10
8	2878	0.000001906	10
8	2908	0.000001926	10
8	2936	0.000001946	10
8	2967	0.000001966	10
8	2999	0.000001986	10
8	3025	0.000002006	10
8	3057	0.000002026	10
8	3088	0.000002046	10
8	3145	0.000002066	10
8	3167	0.000002076667	-1
8	3173	0.000002086	10
8	3201	0.000002106	10
8	3236	0.000002126	10
8	3265	0.000002146	10
8	3291	0.000002166	10
8	3319	0.000002186	10
8	3350	0.000002206	10
8	3379	0.000002226	10
8	3405	0.000002246	10
8	3433	0.000002266	10
8	3464	0.000002286	10
8	3521	0.000002306	10
8	3547	0.000002326	10
8	3575	0.000002346	10
8	3606	0.000002366	10
8	3635	0.000002386	10
8	3665	0.000002406	10
8	3693	0.000002426	10
8	3724	0.000002446	10
8	3756	0.000002466	10
8	3782	0.000002486	10
8	3814	0.000002506	10
8	3845	0.000002526	10
8	3874	0.000002546	10
8	3896	0.000002556667	-1
8	3914	0.000002561	-1
8	3927	0.000002566	10
8	3955	0.000002586	10
8	3990	0.000002606	10
8	4019	0.000002626	10
8	4045	0.000002646	10
8	4073	0.000002666	10
8	4104	0.000002686	10
8	4133	0.000002706	10
8	4159	0.000002726	10
8	4187	0.000002746	10
8	4218	0.000002766	10
8	4247	0.000002786	10
8	4273	0.000002806	10
8	4332	0.000002826	10
8	4363	0.000002846	10
8	4392	0.000002867	10
8	4422	0.000002886	10
8	4450	0.000002906	10
8	4481	0.000002926	10
8	4513	0.000002946	10
8	4541	0.000002967	10
8	4571	0.000002986	10
8	4602	0.000003006	10
8	4631	0.000003026	10
8	4653	0.000003036667	-1
8	4659	0.000003046	10
8	4687	0.000003066	10
8	4750	0.000003086	10
8	4779	0.000003106	10
8	4805	0.000003126	10
8	4833	0.000003146	10
8	4864	0.000003166	10
8	4893	0.000003186	10
8	4919	0.000003206	10
8	4947	0.000003226	10
8	4978	0.000003246	10
8	5007	0.000003266	10
8	5033	0.000003286	10
8	5061	0.000003306	10
8	5092	0.000003326	10
8	5149	0.000003346	10
8	5179	0.000003366	10
8	5207	0.000003386	10
8	5238	0.000003406	10
8	5270	0.000003426	10
8	5296	0.000003446	10
8	5328	0.000003466	10
8	5359	0.000003486	10
8	5388	0.000003506	10
8	5410	0.000003516667	-1
8	5416	0.000003526	10
8	5444	0.000003546	10
8	5479	0.000003566	10
8	5536	0.000003586	10
8	5562	0.000003606	10
8	5590	0.000003626	10
8	5621	0.000003646	10
8	5650	0.000003666	10
8	5676	0.000003686	10
8	5704	0.000003706	10
8	5735	0.000003726	10
8	5764	0.000003746	10
8	5790	0.000003766	10
8	5818	0.000003786	10
8	5849	0.000003806	10
8	5878	0.000003826	10
8	5933	0.000003846	10
8	5961	0.000003866	10
8	5992	0.000003886	10
8	6024	0.000003906	10
8	6050	0.000003926	10
8	6082	0.000003946	10
8	6113	0.000003966	10
8	6142	0.000003986	10
8	6164	0.000003996667	-1
8	6170	0.000004006	10
8	6198	0.000004026	10
8	6233	0.000004046	10
8	6262	0.000004066	10
8	6288	0.000004086	10
8	6347	0.000004106	10
8	6378	0.000004126	10
8	6407	0.000004147	10
8	6433	0.000004166	10
8	6461	0.000004186	10
8	6492	0.000004206	10
8	6521	0.000004226	10
8	6549	0.000004247	10
8	6575	0.000004266	10
8	6606	0.000004286	10
8	6635	0.000004306	10
8	6665	0.000004326	10
8	6693	0.000004346	10
8	6752	0.000004366	10
8	6784	0.000004386	10
8	6810	0.000004406	10
8	6842	0.000004426	10
8	6873	0.000004446	10
8	6902	0.000004466	10
8	6924	0.000004476667	-1
8	6930	0.000004486	10
8	6958	0.000004506	10
8	6993	0.000004526	10
8	7022	0.000004546	10
8	7048	0.000004566	10
8	7076	0.000004586	10
8	7107	0.000004606	10
8	7164	0.000004626	10
8	7190	0.000004646	10
8	7218	0.000004666	10
8	7249	0.000004686	10
8	7278	0.000004706	10
8	7304	0.000004726	10
8	7332	0.000004746	10
8	7363	0.000004766	10
8	7392	0.000004786	10
8	7422	0.000004806	10
8	7450	0.000004826	10
8	7481	0.000004846	10
8	7541	0.000004866	10
8	7567	0.000004886	10
8	7599	0.000004906	10
8	7630	0.000004926	10
8	7659	0.000004946	10
8	7681	0.000004956667	-1
8	7687	0.000004966	10
8	7715	0.000004986	10
8	7750	0.000005006	10
8	7779	0.000005026	10
8	7805	0.000005046	10
8	7833	0.000005066	10
8	7864	0.000005086	10
8	7893	0.000005106	10
8	7944	0.000005126	10
8	7972	0.000005146	10
8	8003	0.000005166	10
8	8031	0.000005186	10
8	8057	0.000005206	10
8	8085	0.000005226	10
8	8120	0.000005246	10
8	8141	0.000005266	10
8	8159	0.000005286	10
8	8181	0.000005306	10
8	8200	0.000005326	10
8	8220	0.000005346	10
8	8230	0.000005366	10
8	8271	0.000005386	10
8	8283	0.000005396667	-1
9	958	0.00000068128	200
9	1715	0.00000116128	200
9	2472	0.00000164228	200
9	3229	0.00000212128	200
9	3983	0.00000260128	200
9	4743	0.00000308128	200
9	5472	0.00000356128	200
9	6226	0.00000404128	200
9	6986	0.00000452128	200
9	7743	0.00000500128	200
10	958	0.00000068128	0
10	1715	0.00000116128	0
10	2472	0.00000164228	0
10	3229	0.00000212128	0
10	3983	0.00000260128	0
10	4743	0.00000308128	0
10	5472	0.00000356128	0
10	6226	0.00000404128	0
10	6986	0.00000452128	0
10	7743	0.00000500128	0
11	958	0.00000068128	-1
11	1715	0.00000116128	-1
11	2472	0.00000164228	-1
11	3229	0.00000212128	-1
11	3983	0.00000260128	-1
11	4743	0.00000308128	-1
11	5472	0.00000356128	-1
11	6226	0.00000404128	-1
11	6986	0.00000452128	-1
11	7743	0.00000500128	-1
12	116	0.000000106	198
12	129	0.000000116667	197
12	132	0.000000126	197
12	145	0.000000136667	196
12	149	0.000000146	196
12	161	0.000000156667	195
12	166	0.000000166	195
12	182	0.000000176667	194
12	186	0.000000186	194
12	202	0.000000196667	193
12	206	0.000000206	193
12	226	0.000000216667	192
12	232	0.000000226	192
12	254	0.000000236667	191
12	260	0.000000246	191
12	284	0.000000256667	190
12	304	0.000000257	195
12	317	0.00000026228	195
12	322	0.000000266	195
12	342	0.000000276667	194
12	350	0.000000286	194
12	371	0.000000296667	193
12	377	0.000000307	193
12	399	0.000000317667	192
12	405	0.000000326	192
12	428	0.000000336667	191
12	436	0.000000346	191
12	449	0.000000356667	190
12	464	0.000000366	190
12	485	0.000000376667	189
12	491	0.000000386	189
12	513	0.000000396667	188
12	518	0.000000406	188
12	541	0.000000416667	187
12	549	0.000000426	187
12	569	0.000000436667	186
12	577	0.000000446	186
12	594	0.000000456667	185
12	604	0.000000466	185
12	626	0.000000476667	184
12	636	0.000000486	184
12	659	0.000000496667	183
12	667	0.000000506	183
12	715	0.000000516667	195
12	723	0.000000526	195
12	746	0.000000536667	194
12	755	0.000000546	194
12	775	0.000000556667	193
12	781	0.000000566	193
12	804	0.000000576667	192
12	813	0.000000586	192
12	836	0.000000596667	191
12	844	0.000000606	191
12	864	0.000000616667	190
12	873	0.000000626	190
12	895	0.000000636667	189
12	901	0.000000646	189
12	924	0.000000656667	188
12	929	0.000000666	188
12	952	0.000000676667	187
12	964	0.000000686	187
12	984	0.000000696667	186
12	993	0.000000706	186
12	1013	0.000000716667	185
12	1019	0.000000726	185
12	1042	0.000000736667	184
12	1047	0.000000746	184
12	1070	0.000000756667	183
12	1078	0.000000766	183
12	1126	0.000000776667	195
12	1135	0.000000786	195
12	1155	0.000000796667	194
12	1161	0.000000806	194
12	1184	0.000000816667	193
12	1189	0.000000826	193
12	1212	0.000000836667	192
12	1220	0.000000846	192
12	1240	0.000000856667	191
12	1249	0.000000866	191
12	1269	0.000000876667	190
12	1275	0.000000886	190
12	1298	0.000000896667	189
12	1303	0.000000906	189
12	1326	0.000000916667	188
12	1334	0.000000926	188
12	1354	0.000000936667	187
12	1363	0.000000946	187
12	1383	0.000000956667	186
12	1393	0.000000966	186
12	1416	0.000000976667	185
12	1421	0.000000986	185
12	1444	0.000000996667	184
12	1452	0.000001006	184
12	1475	0.000001016667	183
12	1505	0.000001025	195
12	1512	0.000001026	195
12	1532	0.000001036667	194
12	1538	0.000001046	194
12	1561	0.000001056667	193
12	1570	0.000001066	193
12	1593	0.000001076667	192
12	1601	0.000001086	192
12	1621	0.000001096667	191
12	1630	0.000001106	191
12	1652	0.000001116667	190
12	1658	0.000001126	190
12	1681	0.000001136667	189
12	1686	0.000001146	189
12	1709	0.000001156667	188
12	1721	0.000001166	188
12	1741	0.000001176667	187
12	1750	0.000001186	187
12	1770	0.000001196667	186
12	1776	0.000001206	186
12	1799	0.000001216667	185
12	1804	0.000001226	185
12	1827	0.000001236667	184
12	1835	0.000001246	184
12	1855	0.000001256667	183
12	1864	0.000001266	183
12	1884	0.000001276667	182
12	1905	0.000001281	195
12	1915	0.000001286	195
12	1938	0.000001296667	194
12	1943	0.000001306	194
12	1966	0.000001316667	193
12	1974	0.000001326	193
12	1994	0.000001336667	192
12	2003	0.000001346	192
12	2023	0.000001356667	191
12	2029	0.000001366	191
12	2052	0.000001376667	190
12	2057	0.000001386	190
12	2080	0.000001396667	189
12	2088	0.000001406	189
12	2108	0.000001416667	188
12	2117	0.000001426	188
12	2137	0.000001436667	187
12	2147	0.000001446	187
12	2170	0.000001456667	186
12	2175	0.000001466	186
12	2198	0.000001476667	185
12	2206	0.000001486	185
12	2229	0.000001496667	184
12	2238	0.000001506	184
12	2258	0.000001516667	183
12	2264	0.000001526	183
12	2288	0.000001536667	182
12	2309	0.000001537	195
12	2322	0.00000154228	195
12	2327	0.000001546	195
12	2350	0.000001556667	194
12	2358	0.000001566	194
12	2378	0.000001576667	193
12	2387	0.000001587	193
12	2409	0.000001597667	192
12	2415	0.000001606	192
12	2438	0.000001616667	191
12	2443	0.000001626	191
12	2459	0.000001636667	190
12	2478	0.000001646	190
12	2498	0.000001656667	189
12	2507	0.000001666	189
12	2527	0.000001676667	188
12	2533	0.000001686	188
12	2556	0.000001696667	187
12	2561	0.000001706	187
12	2584	0.000001716667	186
12	2592	0.000001726	186
12	2608	0.000001736667	185
12	2621	0.000001746	185
12	2641	0.000001756667	184
12	2647	0.000001766	184
12	2670	0.000001776667	183
12	2675	0.000001786	183
12	2726	0.000001796667	195
12	2734	0.000001806	195
12	2754	0.000001816667	194
12	2763	0.000001826	194
12	2783	0.000001836667	193
12	2789	0.000001846	193
12	2812	0.000001856667	192
12	2817	0.000001866	192
12	2840	0.000001876667	191
12	2848	0.000001886	191
12	2868	0.000001896667	190
12	2877	0.000001906	190
12	2897	0.000001916667	189
12	2907	0.000001926	189
12	2930	0.000001936667	188
12	2935	0.000001946	188
12	2958	0.000001956667	187
12	2966	0.000001966	187
12	2989	0.000001976667	186
12	2998	0.000001986	186
12	3018	0.000001996667	185
12	3024	0.000002006	185
12	3047	0.000002016667	184
12	3056	0.000002026	184
12	3079	0.000002036667	183
12	3087	0.000002046	183
12	3135	0.000002056667	195
12	3144	0.000002066	195
12	3166	0.000002076667	194
12	3172	0.000002086	194
12	3195	0.000002096667	193
12	3200	0.000002106	193
12	3223	0.000002116667	192
12	3235	0.000002126	192
12	3255	0.000002136667	191
12	3264	0.000002146	191
12	3284	0.000002156667	190
12	3290	0.000002166	190
12	3313	0.000002176667	189
12	3318	0.000002186	189
12	3341	0.000002196667	188
12	3349	0.000002206	188
12	3369	0.000002216667	187
12	3378	0.000002226	187
12	3398	0.000002236667	186
12	3404	0.000002246	186
12	3427	0.000002256667	185
12	3432	0.000002266	185
12	3455	0.000002276667	184
12	3463	0.000002286	184
12	3483	0.000002296667	183
12	3513	0.000002305	195
12	3520	0.000002306	195
12	3540	0.000002316667	194
12	3546	0.000002326	194
12	3569	0.000002336667	193
12	3574	0.000002346	193
12	3597	0.000002356667	192
12	3605	0.000002366	192
12	3625	0.000002376667	191
12	3634	0.000002386	191
12	3654	0.000002396667	190
12	3664	0.000002406	190
12	3687	0.000002416667	189
12	3692	0.000002426	189
12	3715	0.000002436667	188
12	3723	0.000002446	188
12	3746	0.000002456667	187
12	3755	0.000002466	187
12	3775	0.000002476667	186
12	3781	0.000002486	186
12	3804	0.000002496667	185
12	3813	0.000002506	185
12	3836	0.000002516667	184
12	3844	0.000002526	184
12	3864	0.000002536667	183
12	3873	0.000002546	183
12	3895	0.000002556667	182
12	3916	0.000002561	195
12	3926	0.000002566	195
12	3949	0.000002576667	194
12	3954	0.000002586	194
12	3977	0.000002596667	193
12	3989	0.000002606	193
12	4009	0.000002616667	192
12	4018	0.000002626	192
12	4038	0.000002636667	191
12	4044	0.000002646	191
12	4067	0.000002656667	190
12	4072	0.000002666	190
12	4095	0.000002676667	189
12	4103	0.000002686	189
12	4123	0.000002696667	188
12	4132	0.000002706	188
12	4152	0.000002716667	187
12	4158	0.000002726	187
12	4181	0.000002736667	186
12	4186	0.000002746	186
12	4209	0.000002756667	185
12	4217	0.000002766	185
12	4237	0.000002776667	184
12	4246	0.000002786	184
12	4266	0.000002796667	183
12	4272	0.000002806	183
12	4296	0.000002816667	182
12	4317	0.000002817	195
12	4330	0.00000282228	195
12	4331	0.000002826	195
12	4354	0.000002836667	194
12	4362	0.000002846	194
12	4382	0.000002856667	193
12	4391	0.000002867	193
12	4411	0.000002877667	192
12	4421	0.000002886	192
12	4444	0.000002896667	191
12	4449	0.000002906	191
12	4465	0.000002916667	190
12	4480	0.000002926	190
12	4503	0.000002936667	189
12	4512	0.000002946	189
12	4532	0.000002956667	188
12	4538	0.000002966	188
12	4561	0.000002976667	187
12	4570	0.000002986	187
12	4593	0.000002996667	186
12	4601	0.000003006	186
12	4617	0.000003016667	185
12	4630	0.000003026	185
12	4652	0.000003036667	184
12	4658	0.000003046	184
12	4681	0.000003056667	183
12	4686	0.000003066	183
12	4737	0.000003076667	195
12	4749	0.000003086	195
12	4769	0.000003096667	194
12	4778	0.000003106	194
12	4798	0.000003116667	193
12	4804	0.000003126	193
12	4827	0.000003136667	192
12	4832	0.000003146	192
12	4855	0.000003156667	191
12	4863	0.000003166	191
12	4883	0.000003176667	190
12	4892	0.000003186	190
12	4912	0.000003196667	189
12	4918	0.000003206	189
12	4941	0.000003216667	188
12	4946	0.000003226	188
12	4969	0.000003236667	187
12	4977	0.000003246	187
12	4997	0.000003256667	186
12	5006	0.000003266	186
12	5026	0.000003276667	185
12	5032	0.000003286	185
12	5055	0.000003296667	184
12	5060	0.000003306	184
12	5083	0.000003316667	183
12	5091	0.000003326	183
12	5139	0.000003336667	195
12	5148	0.000003346	195
12	5168	0.000003356667	194
12	5178	0.000003366	194
12	5201	0.000003376667	193
12	5206	0.000003386	193
12	5229	0.000003396667	192
12	5237	0.000003406	192
12	5260	0.000003416667	191
12	5269	0.000003426	191
12	5289	0.000003436667	190
12	5295	0.000003446	190
12	5318	0.000003456667	189
12	5327	0.000003466	189
12	5350	0.000003476667	188
12	5358	0.000003486	188
12	5378	0.000003496667	187
12	5387	0.000003506	187
12	5409	0.000003516667	186
12	5415	0.000003526	186
12	5438	0.000003536667	185
12	5443	0.000003546	185
12	5466	0.000003556667	184
12	5478	0.000003566	184
12	5498	0.000003576667	183
12	5528	0.000003585	195
12	5535	0.000003586	195
12	5555	0.000003596667	194
12	5561	0.000003606	194
12	5584	0.000003616667	193
12	5589	0.000003626	193
12	5612	0.000003636667	192
12	5620	0.000003646	192
12	5640	0.000003656667	191
12	5649	0.000003666	191
12	5669	0.000003676667	190
12	5675	0.000003686	190
12	5698	0.000003696667	189
12	5703	0.000003706	189
12	5726	0.000003716667	188
12	5734	0.000003726	188
12	5754	0.000003736667	187
12	5763	0.000003746	187
12	5783	0.000003756667	186
12	5789	0.000003766	186
12	5812	0.000003776667	185
12	5817	0.000003786	185
12	5840	0.000003796667	184
12	5848	0.000003806	184
12	5868	0.000003816667	183
12	5877	0.000003826	183
12	5897	0.000003836667	182
12	5918	0.000003841	195
12	5932	0.000003846	195
12	5955	0.000003856667	194
12	5960	0.000003866	194
12	5983	0.000003876667	193
12	5991	0.000003886	193
12	6014	0.000003896667	192
12	6023	0.000003906	192
12	6043	0.000003916667	191
12	6049	0.000003926	191
12	6072	0.000003936667	190
12	6081	0.000003946	190
12	6104	0.000003956667	189
12	6112	0.000003966	189
12	6132	0.000003976667	188
12	6141	0.000003986	188
12	6163	0.000003996667	187
12	6169	0.000004006	187
12	6192	0.000004016667	186
12	6197	0.000004026	186
12	6220	0.000004036667	185
12	6232	0.000004046	185
12	6252	0.000004056667	184
12	6261	0.000004066	184
12	6281	0.000004076667	183
12	6287	0.000004086	183
12	6311	0.000004096667	182
12	6332	0.000004097	195
12	6345	0.00000410228	195
12	6346	0.000004106	195
12	6369	0.000004116667	194
12	6377	0.000004126	194
12	6397	0.000004136667	193
12	6406	0.000004147	193
12	6426	0.000004157667	192
12	6432	0.000004166	192
12	6455	0.000004176667	191
12	6460	0.000004186	191
12	6476	0.000004196667	190
12	6491	0.000004206	190
12	6511	0.000004216667	189
12	6520	0.000004226	189
12	6540	0.000004236667	188
12	6546	0.000004246	188
12	6569	0.000004256667	187
12	6574	0.000004266	187
12	6597	0.000004276667	186
12	6605	0.000004286	186
12	6621	0.000004296667	185
12	6634	0.000004306	185
12	6654	0.000004316667	184
12	6664	0.000004326	184
12	6687	0.000004336667	183
12	6692	0.000004346	183
12	6743	0.000004356667	195
12	6751	0.000004366	195
12	6774	0.000004376667	194
12	6783	0.000004386	194
12	6803	0.000004396667	193
12	6809	0.000004406	193
12	6832	0.000004416667	192
12	6841	0.000004426	192
12	6864	0.000004436667	191
12	6872	0.000004446	191
12	6892	0.000004456667	190
12	6901	0.000004466	190
12	6923	0.000004476667	189
12	6929	0.000004486	189
12	6952	0.000004496667	188
12	6957	0.000004506	188
12	6980	0.000004516667	187
12	6992	0.000004526	187
12	7012	0.000004536667	186
12	7021	0.000004546	186
12	7041	0.000004556667	185
12	7047	0.000004566	185
12	7070	0.000004576667	184
12	7075	0.000004586	184
12	7098	0.000004596667	183
12	7106	0.000004606	183
12	7154	0.000004616667	195
12	7163	0.000004626	195
12	7183	0.000004636667	194
12	7189	0.000004646	194
12	7212	0.000004656667	193
12	7217	0.000004666	193
12	7240	0.000004676667	192
12	7248	0.000004686	192
12	7268	0.000004696667	191
12	7277	0.000004706	191
12	7297	0.000004716667	190
12	7303	0.000004726	190
12	7326	0.000004736667	189
12	7331	0.000004746	189
12	7354	0.000004756667	188
12	7362	0.000004766	188
12	7382	0.000004776667	187
12	7391	0.000004786	187
12	7411	0.000004796667	186
12	7421	0.000004806	186
12	7444	0.000004816667	185
12	7449	0.000004826	185
12	7472	0.000004836667	184
12	7480	0.000004846	184
12	7503	0.000004856667	183
12	7533	0.000004865	195
12	7540	0.000004866	195
12	7560	0.000004876667	194
12	7566	0.000004886	194
12	7589	0.000004896667	193
12	7598	0.000004906	193
12	7621	0.000004916667	192
12	7629	0.000004926	192
12	7649	0.000004936667	191
12	7658	0.000004946	191
12	7680	0.000004956667	190
12	7686	0.000004966	190
12	7709	0.000004976667	189
12	7714	0.000004986	189
12	7737	0.000004996667	188
12	7749	0.000005006	188
12	7769	0.000005016667	187
12	7778	0.000005026	187
12	7798	0.000005036667	186
12	7804	0.000005046	186
12	7827	0.000005056667	185
12	7832	0.000005066	185
12	7855	0.000005076667	184
12	7863	0.000005086	184
12	7883	0.000005096667	183
12	7892	0.000005106	183
12	7912	0.000005116667	182
12	7933	0.000005121	195
12	7943	0.000005126	195
12	7966	0.000005136667	194
12	7971	0.000005146	194
12	7994	0.000005156667	193
12	8002	0.000005166	193
12	8022	0.000005176667	192
12	8030	0.000005186	192
12	8051	0.000005196667	191
12	8056	0.000005206	191
12	8079	0.000005216667	190
12	8084	0.000005226	190
12	8107	0.000005236667	189
12	8119	0.000005246	189
12	8133	0.000005256667	188
12	8140	0.000005266	188
12	8154	0.000005276667	187
12	8158	0.000005286	187
12	8177	0.000005296667	186
12	8262	0.000005377	199
13	116	0.000000106	10
13	129	0.000000116667	0
13	132	0.000000126	10
13	145	0.000000136667	0
13	149	0.000000146	10
13	161	0.000000156667	0
13	166	0.000000166	10
13	182	0.000000176667	0
13	186	0.000000186	10
13	202	0.000000196667	0
13	206	0.000000206	10
13	226	0.000000216667	0
13	232	0.000000226	10
13	254	0.000000236667	0
13	260	0.000000246	10
13	284	0.000000256667	0
13	304	0.000000257	0
13	317	0.00000026228	0
13	322	0.000000266	10
13	342	0.000000276667	0
13	350	0.000000286	10
13	371	0.000000296667	0
13	377	0.000000307	10
13	399	0.000000317667	0
13	405	0.000000326	10
13	428	0.000000336667	0
13	436	0.000000346	10
13	449	0.000000356667	0
13	464	0.000000366	10
13	485	0.000000376667	0
13	491	0.000000386	10
13	513	0.000000396667	0
13	518	0.000000406	10
13	541	0.000000416667	0
13	549	0.000000426	10
13	569	0.000000436667	0
13	577	0.000000446	10
13	594	0.000000456667	0
13	604	0.000000466	10
13	626	0.000000476667	0
13	636	0.000000486	10
13	659	0.000000496667	0
13	667	0.000000506	10
13	715	0.000000516667	0
13	723	0.000000526	10
13	746	0.000000536667	0
13	755	0.000000546	10
13	775	0.000000556667	0
13	781	0.000000566	10
13	804	0.000000576667	0
13	813	0.000000586	10
13	836	0.000000596667	0
13	844	0.000000606	10
13	864	0.000000616667	0
13	873	0.000000626	10
13	895	0.000000636667	0
13	901	0.000000646	10
13	924	0.000000656667	0
13	929	0.000000666	10
13	952	0.000000676667	0
13	964	0.000000686	10
13	984	0.000000696667	0
13	993	0.000000706	10
13	1013	0.000000716667	0
13	1019	0.000000726	10
13	1042	0.000000736667	0
13	1047	0.000000746	10
13	1070	0.000000756667	0
13	1078	0.000000766	10
13	1126	0.000000776667	0
13	1135	0.000000786	10
13	1155	0.000000796667	0
13	1161	0.000000806	10
13	1184	0.000000816667	0
13	1189	0.000000826	10
13	1212	0.000000836667	0
13	1220	0.000000846	10
13	1240	0.000000856667	0
13	1249	0.000000866	10
13	1269	0.000000876667	0
13	1275	0.000000886	10
13	1298	0.000000896667	0
13	1303	0.000000906	10
13	1326	0.000000916667	0
13	1334	0.000000926	10
13	1354	0.000000936667	0
13	1363	0.000000946	10
13	1383	0.000000956667	0
13	1393	0.000000966	10
13	1416	0.000000976667	0
13	1421	0.000000986	10
13	1444	0.000000996667	0
13	1452	0.000001006	10
13	1475	0.000001016667	0
13	1505	0.000001025	0
13	1512	0.000001026	10
13	1532	0.000001036667	0
13	1538	0.000001046	10
13	1561	0.000001056667	0
13	1570	0.000001066	10
13	1593	0.000001076667	0
13	1601	0.000001086	10
13	1621	0.000001096667	0
13	1630	0.000001106	10
13	1652	0.000001116667	0
13	1658	0.000001126	10
13	1681	0.000001136667	0
13	1686	0.000001146	10
13	1709	0.000001156667	0
13	1721	0.000001166	10
13	1741	0.000001176667	0
13	1750	0.000001186	10
13	1770	0.000001196667	0
13	1776	0.000001206	10
13	1799	0.000001216667	0
13	1804	0.000001226	10
13	1827	0.000001236667	0
13	1835	0.000001246	10
13	1855	0.000001256667	0
13	1864	0.000001266	10
13	1884	0.000001276667	0
13	1905	0.000001281	0
13	1915	0.000001286	10
13	1938	0.000001296667	0
13	1943	0.000001306	10
13	1966	0.000001316667	0
13	1974	0.000001326	10
13	1994	0.000001336667	0
13	2003	0.000001346	10
13	2023	0.000001356667	0
13	2029	0.000001366	10
13	2052	0.000001376667	0
13	2057	0.000001386	10
13	2080	0.000001396667	0
13	2088	0.000001406	10
13	2108	0.000001416667	0
13	2117	0.000001426	10
13	2137	0.000001436667	0
13	2147	0.000001446	10
13	2170	0.000001456667	0
13	2175	0.000001466	10
13	2198	0.000001476667	0
13	2206	0.000001486	10
13	2229	0.000001496667	0
13	2238	0.000001506	10
13	2258	0.000001516667	0
13	2264	0.000001526	10
13	2288	0.000001536667	0
13	2309	0.000001537	0
13	2322	0.00000154228	0
13	2327	0.000001546	10
13	2350	0.000001556667	0
13	2358	0.000001566	10
13	2378	0.000001576667	0
13	2387	0.000001587	10
13	2409	0.000001597667	0
13	2415	0.000001606	10
13	2438	0.000001616667	0
13	2443	0.000001626	10
13	2459	0.000001636667	0
13	2478	0.000001646	10
13	2498	0.000001656667	0
13	2507	0.000001666	10
13	2527	0.000001676667	0
13	2533	0.000001686	10
13	2556	0.000001696667	0
13	2561	0.000001706	10
13	2584	0.000001716667	0
13	2592	0.000001726	10
13	2608	0.000001736667	0
13	2621	0.000001746	10
13	2641	0.000001756667	0
13	2647	0.000001766	10
13	2670	0.000001776667	0
13	2675	0.000001786	10
13	2726	0.000001796667	0
13	2734	0.000001806	10
13	2754	0.000001816667	0
13	2763	0.000001826	10
13	2783	0.000001836667	0
13	2789	0.000001846	10
13	2812	0.000001856667	0
13	2817	0.000001866	10
13	2840	0.000001876667	0
13	2848	0.000001886	10
13	2868	0.000001896667	0
13	2877	0.000001906	10
13	2897	0.000001916667	0
13	2907	0.000001926	10
13	2930	0.000001936667	0
13	2935	0.000001946	10
13	2958	0.000001956667	0
13	2966	0.000001966	10
13	2989	0.000001976667	0
13	2998	0.000001986	10
13	3018	0.000001996667	0
13	3024	0.000002006	10
13	3047	0.000002016667	0
13	3056	0.000002026	10
13	3079	0.000002036667	0
13	3087	0.000002046	10
13	3135	0.000002056667	0
13	3144	0.000002066	10
13	3166	0.000002076667	0
13	3172	0.000002086	10
13	3195	0.000002096667	0
13	3200	0.000002106	10
13	3223	0.000002116667	0
13	3235	0.000002126	10
13	3255	0.000002136667	0
13	3264	0.000002146	10
13	3284	0.000002156667	0
13	3290	0.000002166	10
13	3313	0.000002176667	0
13	3318	0.000002186	10
13	3341	0.000002196667	0
13	3349	0.000002206	10
13	3369	0.000002216667	0
13	3378	0.000002226	10
13	3398	0.000002236667	0
13	3404	0.000002246	10
13	3427	0.000002256667	0
13	3432	0.000002266	10
13	3455	0.000002276667	0
13	3463	0.000002286	10
13	3483	0.000002296667	0
13	3513	0.000002305	0
13	3520	0.000002306	10
13	3540	0.000002316667	0
13	3546	0.000002326	10
13	3569	0.000002336667	0
13	3574	0.000002346	10
13	3597	0.000002356667	0
13	3605	0.000002366	10
13	3625	0.000002376667	0
13	3634	0.000002386	10
13	3654	0.000002396667	0
13	3664	0.000002406	10
13	3687	0.000002416667	0
13	3692	0.000002426	10
13	3715	0.000002436667	0
13	3723	0.000002446	10
13	3746	0.000002456667	0
13	3755	0.000002466	10
13	3775	0.000002476667	0
13	3781	0.000002486	10
13	3804	0.000002496667	0
13	3813	0.000002506	10
13	3836	0.000002516667	0
13	3844	0.000002526	10
13	3864	0.000002536667	0
13	3873	0.000002546	10
13	3895	0.000002556667	0
13	3916	0.000002561	0
13	3926	0.000002566	10
13	3949	0.000002576667	0
13	3954	0.000002586	10
13	3977	0.000002596667	0
13	3989	0.000002606	10
13	4009	0.000002616667	0
13	4018	0.000002626	10
13	4038	0.000002636667	0
13	4044	0.000002646	10
13	4067	0.000002656667	0
13	4072	0.000002666	10
13	4095	0.000002676667	0
13	4103	0.000002686	10
13	4123	0.000002696667	0
13	4132	0.000002706	10
13	4152	0.000002716667	0
13	4158	0.000002726	10
13	4181	0.000002736667	0
13	4186	0.000002746	10
13	4209	0.000002756667	0
13	4217	0.000002766	10
13	4237	0.000002776667	0
13	4246	0.000002786	10
13	4266	0.000002796667	0
13	4272	0.000002806	10
13	4296	0.000002816667	0
13	4317	0.000002817	0
13	4330	0.00000282228	0
13	4331	0.000002826	10
13	4354	0.000002836667	0
13	4362	0.000002846	10
13	4382	0.000002856667	0
13	4391	0.000002867	10
13	4411	0.000002877667	0
13	4421	0.000002886	10
13	4444	0.000002896667	0
13	4449	0.000002906	10
13	4465	0.000002916667	0
13	4480	0.000002926	10
13	4503	0.000002936667	0
13	4512	0.000002946	10
13	4532	0.000002956667	0
13	4538	0.000002966	10
13	4561	0.000002976667	0
13	4570	0.000002986	10
13	4593	0.000002996667	0
13	4601	0.000003006	10
13	4617	0.000003016667	0
13	4630	0.000003026	10
13	4652	0.000003036667	0
13	4658	0.000003046	10
13	4681	0.000003056667	0
13	4686	0.000003066	10
13	4737	0.000003076667	0
13	4749	0.000003086	10
13	4769	0.000003096667	0
13	4778	0.000003106	10
13	4798	0.000003116667	0
13	4804	0.000003126	10
13	4827	0.000003136667	0
13	4832	0.000003146	10
13	4855	0.000003156667	0
13	4863	0.000003166	10
13	4883	0.000003176667	0
13	4892	0.000003186	10
13	4912	0.000003196667	0
13	4918	0.000003206	10
13	4941	0.000003216667	0
13	4946	0.000003226	10
13	4969	0.000003236667	0
13	4977	0.000003246	10
13	4997	0.000003256667	0
13	5006	0.000003266	10
13	5026	0.000003276667	0
13	5032	0.000003286	10
13	5055	0.000003296667	0
13	5060	0.000003306	10
13	5083	0.000003316667	0
13	5091	0.000003326	10
13	5139	0.000003336667	0
13	5148	0.000003346	10
13	5168	0.000003356667	0
13	5178	0.000003366	10
13	5201	0.000003376667	0
13	5206	0.000003386	10
13	5229	0.000003396667	0
13	5237	0.000003406	10
13	5260	0.000003416667	0
13	5269	0.000003426	10
13	5289	0.000003436667	0
13	5295	0.000003446	10
13	5318	0.000003456667	0
13	5327	0.000003466	10
13	5350	0.000003476667	0
13	5358	0.000003486	10
13	5378	0.000003496667	0
13	5387	0.000003506	10
13	5409	0.000003516667	0
13	5415	0.000003526	10
13	5438	0.000003536667	0
13	5443	0.000003546	10
13	5466	0.000003556667	0
13	5478	0.000003566	10
13	5498	0.000003576667	0
13	5528	0.000003585	0
13	5535	0.000003586	10
13	5555	0.000003596667	0
13	5561	0.000003606	10
13	5584	0.000003616667	0
13	5589	0.000003626	10
13	5612	0.000003636667	0
13	5620	0.000003646	10
13	5640	0.000003656667	0
13	5649	0.000003666	10
13	5669	0.000003676667	0
13	5675	0.000003686	10
13	5698	0.000003696667	0
13	5703	0.000003706	10
13	5726	0.000003716667	0
13	5734	0.000003726	10
13	5754	0.000003736667	0
13	5763	0.000003746	10
13	5783	0.000003756667	0
13	5789	0.000003766	10
13	5812	0.000003776667	0
13	5817	0.000003786	10
13	5840	0.000003796667	0
13	5848	0.000003806	10
13	5868	0.000003816667	0
13	5877	0.000003826	10
13	5897	0.000003836667	0
13	5918	0.000003841	0
13	5932	0.000003846	10
13	5955	0.000003856667	0
13	5960	0.000003866	10
13	5983	0.000003876667	0
13	5991	0.000003886	10
13	6014	0.000003896667	0
13	6023	0.000003906	10
13	6043	0.000003916667	0
13	6049	0.000003926	10
13	6072	0.000003936667	0
13	6081	0.000003946	10
13	6104	0.000003956667	0
13	6112	0.000003966	10
13	6132	0.000003976667	0
13	6141	0.000003986	10
13	6163	0.000003996667	0
13	6169	0.000004006	10
13	6192	0.000004016667	0
13	6197	0.000004026	10
13	6220	0.000004036667	0
13	6232	0.000004046	10
13	6252	0.000004056667	0
13	6261	0.000004066	10
13	6281	0.000004076667	0
13	6287	0.000004086	10
13	6311	0.000004096667	0
13	6332	0.000004097	0
13	6345	0.00000410228	0
13	6346	0.000004106	10
13	6369	0.000004116667	0
13	6377	0.000004126	10
13	6397	0.000004136667	0
13	6406	0.000004147	10
13	6426	0.000004157667	0
13	6432	0.000004166	10
13	6455	0.000004176667	0
13	6460	0.000004186	10
13	6476	0.000004196667	0
13	6491	0.000004206	10
13	6511	0.000004216667	0
13	6520	0.000004226	10
13	6540	0.000004236667	0
13	6546	0.000004246	10
13	6569	0.000004256667	0
13	6574	0.000004266	10
13	6597	0.000004276667	0
13	6605	0.000004286	10
13	6621	0.000004296667	0
13	6634	0.000004306	10
13	6654	0.000004316667	0
13	6664	0.000004326	10
13	6687	0.000004336667	0
13	6692	0.000004346	10
13	6743	0.000004356667	0
13	6751	0.000004366	10
13	6774	0.000004376667	0
13	6783	0.000004386	10
13	6803	0.000004396667	0
13	6809	0.000004406	10
13	6832	0.000004416667	0
13	6841	0.000004426	10
13	6864	0.000004436667	0
13	6872	0.000004446	10
13	6892	0.000004456667	0
13	6901	0.000004466	10
13	6923	0.000004476667	0
13	6929	0.000004486	10
13	6952	0.000004496667	0
13	6957	0.000004506	10
13	6980	0.000004516667	0
13	6992	0.000004526	10
13	7012	0.000004536667	0
13	7021	0.000004546	10
13	7041	0.000004556667	0
13	7047	0.000004566	10
13	7070	0.000004576667	0
13	7075	0.000004586	10
13	7098	0.000004596667	0
13	7106	0.000004606	10
13	7154	0.000004616667	0
13	7163	0.000004626	10
13	7183	0.000004636667	0
13	7189	0.000004646	10
13	7212	0.000004656667	0
13	7217	0.000004666	10
13	7240	0.000004676667	0
13	7248	0.000004686	10
13	7268	0.000004696667	0
13	7277	0.000004706	10
13	7297	0.000004716667	0
13	7303	0.000004726	10
13	7326	0.000004736667	0
13	7331	0.000004746	10
13	7354	0.000004756667	0
13	7362	0.000004766	10
13	7382	0.000004776667	0
13	7391	0.000004786	10
13	7411	0.000004796667	0
13	7421	0.000004806	10
13	7444	0.000004816667	0
13	7449	0.000004826	10
13	7472	0.000004836667	0
13	7480	0.000004846	10
13	7503	0.000004856667	0
13	7533	0.000004865	0
13	7540	0.000004866	10
13	7560	0.000004876667	0
13	7566	0.000004886	10
13	7589	0.000004896667	0
13	7598	0.000004906	10
13	7621	0.000004916667	0
13	7629	0.000004926	10
13	7649	0.000004936667	0
13	7658	0.000004946	10
13	7680	0.000004956667	0
13	7686	0.000004966	10
13	7709	0.000004976667	0
13	7714	0.000004986	10
13	7737	0.000004996667	0
13	7749	0.000005006	10
13	7769	0.000005016667	0
13	7778	0.000005026	10
13	7798	0.000005036667	0
13	7804	0.000005046	10
13	7827	0.000005056667	0
13	7832	0.000005066	10
13	7855	0.000005076667	0
13	7863	0.000005086	10
13	7883	0.000005096667	0
13	7892	0.000005106	10
13	7912	0.000005116667	0
13	7933	0.000005121	0
13	7943	0.000005126	10
13	7966	0.000005136667	0
13	7971	0.000005146	10
13	7994	0.000005156667	0
13	8002	0.000005166	10
13	8022	0.000005176667	0
13	8030	0.000005186	10
13	8051	0.000005196667	0
13	8056	0.000005206	10
13	8079	0.000005216667	0
13	8084	0.000005226	10
13	8107	0.000005236667	0
13	8119	0.000005246	10
13	8133	0.000005256667	0
13	8140	0.000005266	10
13	8154	0.000005276667	0
13	8158	0.000005286	10
13	8177	0.000005296667	0
13	8262	0.000005377	0
14	116	0.000000106	10
14	132	0.000000126	10
14	149	0.000000146	10
14	166	0.000000166	10
14	186	0.000000186	10
14	206	0.000000206	10
14	232	0.000000226	10
14	260	0.000000246	10
14	322	0.000000266	10
14	350	0.000000286	10
14	377	0.000000307	10
14	405	0.000000326	10
14	436	0.000000346	10
14	464	0.000000366	10
14	491	0.000000386	10
14	518	0.000000406	10
14	549	0.000000426	10
14	577	0.000000446	10
14	604	0.000000466	10
14	636	0.000000486	10
14	667	0.000000506	10
14	723	0.000000526	10
14	746	0.000000536667	-1
14	755	0.000000546	10
14	781	0.000000566	10
14	813	0.000000586	10
14	844	0.000000606	10
14	873	0.000000626	10
14	901	0.000000646	10
14	929	0.000000666	10
14	964	0.000000686	10
14	993	0.000000706	10
14	1019	0.000000726	10
14	1047	0.000000746	10
14	1078	0.000000766	10
14	1135	0.000000786	10
14	1161	0.000000806	10
14	1189	0.000000826	10
14	1220	0.000000846	10
14	1249	0.000000866	10
14	1275	0.000000886	10
14	1303	0.000000906	10
14	1334	0.000000926	10
14	1363	0.000000946	10
14	1393	0.000000966	10
14	1421	0.000000986	10
14	1452	0.000001006	10
14	1475	0.000001016667	-1
14	1505	0.000001025	-1
14	1512	0.000001026	10
14	1538	0.000001046	10
14	1570	0.000001066	10
14	1601	0.000001086	10
14	1630	0.000001106	10
14	1658	0.000001126	10
14	1686	0.000001146	10
14	1721	0.000001166	10
14	1750	0.000001186	10
14	1776	0.000001206	10
14	1804	0.000001226	10
14	1835	0.000001246	10
14	1864	0.000001266	10
14	1915	0.000001286	10
14	1943	0.000001306	10
14	1974	0.000001326	10
14	2003	0.000001346	10
14	2029	0.000001366	10
14	2057	0.000001386	10
14	2088	0.000001406	10
14	2117	0.000001426	10
14	2147	0.000001446	10
14	2175	0.000001466	10
14	2206	0.000001486	10
14	2229	0.000001496667	-1
14	2238	0.000001506	10
14	2264	0.000001526	10
14	2327	0.000001546	10
14	2358	0.000001566	10
14	2387	0.000001587	10
14	2415	0.000001606	10
14	2443	0.000001626	10
14	2478	0.000001646	10
14	2507	0.000001666	10
14	2533	0.000001686	10
14	2561	0.000001706	10
14	2592	0.000001726	10
14	2621	0.000001746	10
14	2647	0.000001766	10
14	2675	0.000001786	10
14	2734	0.000001806	10
14	2763	0.000001826	10
14	2789	0.000001846	10
14	2817	0.000001866	10
14	2848	0.000001886	10
14	2877	0.000001906	10
14	2907	0.000001926	10
14	2935	0.000001946	10
14	2966	0.000001966	10
14	2989	0.000001976667	-1
14	2998	0.000001986	10
14	3024	0.000002006	10
14	3056	0.000002026	10
14	3087	0.000002046	10
14	3144	0.000002066	10
14	3172	0.000002086	10
14	3200	0.000002106	10
14	3235	0.000002126	10
14	3264	0.000002146	10
14	3290	0.000002166	10
14	3318	0.000002186	10
14	3349	0.000002206	10
14	3378	0.000002226	10
14	3404	0.000002246	10
14	3432	0.000002266	10
14	3463	0.000002286	10
14	3520	0.000002306	10
14	3546	0.000002326	10
14	3574	0.000002346	10
14	3605	0.000002366	10
14	3634	0.000002386	10
14	3664	0.000002406	10
14	3692	0.000002426	10
14	3723	0.000002446	10
14	3746	0.000002456667	-1
14	3755	0.000002466	10
14	3781	0.000002486	10
14	3813	0.000002506	10
14	3844	0.000002526	10
14	3873	0.000002546	10
14	3926	0.000002566	10
14	3954	0.000002586	10
14	3989	0.000002606	10
14	4018	0.000002626	10
14	4044	0.000002646	10
14	4072	0.000002666	10
14	4103	0.000002686	10
14	4132	0.000002706	10
14	4158	0.000002726	10
14	4186	0.000002746	10
14	4217	0.000002766	10
14	4246	0.000002786	10
14	4272	0.000002806	10
14	4331	0.000002826	10
14	4362	0.000002846	10
14	4391	0.000002867	10
14	4421	0.000002886	10
14	4449	0.000002906	10
14	4480	0.000002926	10
14	4503	0.000002936667	-1
14	4512	0.000002946	10
14	4538	0.000002966	10
14	4570	0.000002986	10
14	4601	0.000003006	10
14	4630	0.000003026	10
14	4658	0.000003046	10
14	4686	0.000003066	10
14	4749	0.000003086	10
14	4778	0.000003106	10
14	4804	0.000003126	10
14	4832	0.000003146	10
14	4863	0.000003166	10
14	4892	0.000003186	10
14	4918	0.000003206	10
14	4946	0.000003226	10
14	4977	0.000003246	10
14	5006	0.000003266	10
14	5032	0.000003286	10
14	5060	0.000003306	10
14	5091	0.000003326	10
14	5148	0.000003346	10
14	5178	0.000003366	10
14	5206	0.000003386	10
14	5237	0.000003406	10
14	5260	0.000003416667	-1
14	5269	0.000003426	10
14	5295	0.000003446	10
14	5327	0.000003466	10
14	5358	0.000003486	10
14	5387	0.000003506	10
14	5415	0.000003526	10
14	5443	0.000003546	10
14	5478	0.000003566	10
14	5535	0.000003586	10
14	5561	0.000003606	10
14	5589	0.000003626	10
14	5620	0.000003646	10
14	5649	0.000003666	10
14	5675	0.000003686	10
14	5703	0.000003706	10
14	5734	0.000003726	10
14	5763	0.000003746	10
14	5789	0.000003766	10
14	5817	0.000003786	10
14	5848	0.000003806	10
14	5877	0.000003826	10
14	5932	0.000003846	10
14	5960	0.000003866	10
14	5991	0.000003886	10
14	6014	0.000003896667	-1
14	6023	0.000003906	10
14	6049	0.000003926	10
14	6081	0.000003946	10
14	6112	0.000003966	10
14	6141	0.000003986	10
14	6169	0.000004006	10
14	6197	0.000004026	10
14	6232	0.000004046	10
14	6261	0.000004066	10
14	6287	0.000004086	10
14	6346	0.000004106	10
14	6377	0.000004126	10
14	6406	0.000004147	10
14	6432	0.000004166	10
14	6460	0.000004186	10
14	6491	0.000004206	10
14	6520	0.000004226	10
14	6546	0.000004246	10
14	6574	0.000004266	10
14	6605	0.000004286	10
14	6634	0.000004306	10
14	6664	0.000004326	10
14	6692	0.000004346	10
14	6751	0.000004366	10
14	6774	0.000004376667	-1
14	6783	0.000004386	10
14	6809	0.000004406	10
14	6841	0.000004426	10
14	6872	0.000004446	10
14	6901	0.000004466	10
14	6929	0.000004486	10
14	6957	0.000004506	10
14	6992	0.000004526	10
14	7021	0.000004546	10
14	7047	0.000004566	10
14	7075	0.000004586	10
14	7106	0.000004606	10
14	7163	0.000004626	10
14	7189	0.000004646	10
14	7217	0.000004666	10
14	7248	0.000004686	10
14	7277	0.000004706	10
14	7303	0.000004726	10
14	7331	0.000004746	10
14	7362	0.000004766	10
14	7391	0.000004786	10
14	7421	0.000004806	10
14	7449	0.000004826	10
14	7480	0.000004846	10
14	7503	0.000004856667	-1
14	7533	0.000004865	-1
14	7540	0.000004866	10
14	7566	0.000004886	10
14	7598	0.000004906	10
14	7629	0.000004926	10
14	7658	0.000004946	10
14	7686	0.000004966	10
14	7714	0.000004986	10
14	7749	0.000005006	10
14	7778	0.000005026	10
14	7804	0.000005046	10
14	7832	0.000005066	10
14	7863	0.000005086	10
14	7892	0.000005106	10
14	7943	0.000005126	10
14	7971	0.000005146	10
14	8002	0.000005166	10
14	8030	0.000005186	10
14	8056	0.000005206	10
14	8084	0.000005226	10
14	8119	0.000005246	10
14	8140	0.000005266	10
14	8158	0.000005286	10
14	8177	0.000005296667	-1
14	8262	0.000005377	-1
15	122	0.000000116	195
15	138	0.000000136	194
15	154	0.000000156	193
15	173	0.000000176	192
15	194	0.000000196	191
15	215	0.000000216	190
15	243	0.000000236	189
15	279	0.000000256	188
15	331	0.000000276	197
15	359	0.000000296	196
15	388	0.000000316	195
15	416	0.000000336	194
15	443	0.000000356	193
15	473	0.000000376	192
15	502	0.000000396	191
15	530	0.000000416	190
15	559	0.000000436	189
15	586	0.000000456	188
15	616	0.000000476	187
15	648	0.000000496	186
15	705	0.000000516	198
15	736	0.000000536	197
15	765	0.000000556	196
15	793	0.000000576	195
15	826	0.000000596	194
15	854	0.000000616	193
15	884	0.000000636	192
15	913	0.000000656	191
15	942	0.000000676	190
15	974	0.000000696	189
15	1002	0.000000716	188
15	1031	0.000000736	187
15	1060	0.000000756	186
15	1116	0.000000776	198
15	1144	0.000000796	197
15	1173	0.000000816	196
15	1202	0.000000836	195
15	1230	0.000000856	194
15	1258	0.000000876	193
15	1287	0.000000896	192
15	1316	0.000000916	191
15	1344	0.000000936	190
15	1372	0.000000956	189
15	1405	0.000000976	188
15	1434	0.000000996	187
15	1465	0.000001016	186
15	1521	0.000001036	197
15	1550	0.000001056	196
15	1583	0.000001076	195
15	1611	0.000001096	194
15	1641	0.000001116	193
15	1670	0.000001136	192
15	1699	0.000001156	191
15	1731	0.000001176	190
15	1759	0.000001196	189
15	1788	0.000001216	188
15	1817	0.000001236	187
15	1845	0.000001256	186
15	1873	0.000001276	185
15	1927	0.000001296	197
15	1956	0.000001316	196
15	1984	0.000001336	195
15	2012	0.000001356	194
15	2041	0.000001376	193
15	2070	0.000001396	192
15	2098	0.000001416	191
15	2126	0.000001436	190
15	2159	0.000001456	189
15	2188	0.000001476	188
15	2219	0.000001496	187
15	2247	0.000001516	186
15	2284	0.000001536	185
15	2340	0.000001556	197
15	2368	0.000001576	196
15	2398	0.000001596	195
15	2427	0.000001616	194
15	2454	0.000001636	193
15	2488	0.000001656	192
15	2516	0.000001676	191
15	2545	0.000001696	190
15	2574	0.000001716	189
15	2601	0.000001736	188
15	2630	0.000001756	187
15	2659	0.000001776	186
15	2716	0.000001796	198
15	2744	0.000001816	197
15	2772	0.000001836	196
15	2801	0.000001856	195
15	2830	0.000001876	194
15	2858	0.000001896	193
15	2886	0.000001916	192
15	2919	0.000001936	191
15	2948	0.000001956	190
15	2979	0.000001976	189
15	3007	0.000001996	188
15	3036	0.000002016	187
15	3069	0.000002036	186
15	3125	0.000002056	198
15	3155	0.000002076	197
15	3184	0.000002096	196
15	3213	0.000002116	195
15	3245	0.000002136	194
15	3273	0.000002156	193
15	3302	0.000002176	192
15	3331	0.000002196	191
15	3359	0.000002216	190
15	3387	0.000002236	189
15	3416	0.000002256	188
15	3445	0.000002276	187
15	3473	0.000002296	186
15	3529	0.000002316	197
15	3558	0.000002336	196
15	3587	0.000002356	195
15	3615	0.000002376	194
15	3643	0.000002396	193
15	3676	0.000002416	192
15	3705	0.000002436	191
15	3736	0.000002456	190
15	3764	0.000002476	189
15	3793	0.000002496	188
15	3826	0.000002516	187
15	3854	0.000002536	186
15	3884	0.000002556	185
15	3938	0.000002576	197
15	3967	0.000002596	196
15	3999	0.000002616	195
15	4027	0.000002636	194
15	4056	0.000002656	193
15	4085	0.000002676	192
15	4113	0.000002696	191
15	4141	0.000002716	190
15	4170	0.000002736	189
15	4199	0.000002756	188
15	4227	0.000002776	187
15	4255	0.000002796	186
15	4292	0.000002816	185
15	4344	0.000002836	197
15	4372	0.000002856	196
15	4400	0.000002876	195
15	4433	0.000002896	194
15	4460	0.000002916	193
15	4493	0.000002936	192
15	4521	0.000002956	191
15	4550	0.000002976	190
15	4583	0.000002996	189
15	4610	0.000003016	188
15	4641	0.000003036	187
15	4670	0.000003056	186
15	4727	0.000003076	198
15	4759	0.000003096	197
15	4787	0.000003116	196
15	4816	0.000003136	195
15	4845	0.000003156	194
15	4873	0.000003176	193
15	4901	0.000003196	192
[...]
31	5786	0.00000376128	0
31	5814	0.00000378128	0
31	5842	0.00000380128	0
31	5873	0.00000382128	0
31	5922	0.00000384128	0
31	5957	0.00000386128	0
31	5985	0.00000388128	0
31	6019	0.00000390128	0
31	6046	0.00000392128	0
31	6080	0.00000394194	0
31	6106	0.00000396128	0
31	6137	0.00000398128	0
31	6166	0.00000400128	0
31	6194	0.00000402128	0
31	6222	0.00000404128	0
31	6257	0.00000406128	0
31	6284	0.00000408128	0
31	6305	0.000004096	1
31	6320	0.000004097	0
31	6342	0.00000410228	0
31	6371	0.00000412128	0
31	6402	0.00000414128	0
31	6429	0.00000416128	0
31	6457	0.00000418128	0
31	6486	0.00000420228	0
31	6516	0.00000422128	0
31	6543	0.00000424128	0
31	6571	0.00000426128	0
31	6599	0.00000428128	0
31	6630	0.00000430128	0
31	6657	0.00000432128	0
31	6689	0.00000434128	0
31	6718	0.000004353	0
31	6745	0.00000436128	0
31	6779	0.00000438128	0
31	6806	0.00000440128	0
31	6840	0.00000442194	0
31	6866	0.00000444128	0
31	6897	0.00000446128	0
31	6926	0.00000448128	0
31	6954	0.00000450128	0
31	6982	0.00000452128	0
31	7017	0.00000454128	0
31	7044	0.00000456128	0
31	7072	0.00000458128	0
31	7100	0.00000460128	0
31	7128	0.000004609	0
31	7159	0.00000462128	0
31	7186	0.00000464128	0
31	7214	0.00000466128	0
31	7242	0.00000468128	0
31	7273	0.00000470128	0
31	7300	0.00000472128	0
31	7328	0.00000474128	0
31	7356	0.00000476128	0
31	7387	0.00000478128	0
31	7414	0.00000480128	0
31	7446	0.00000482128	0
31	7474	0.00000484128	0
31	7508	0.00000486128	0
31	7527	0.000004865	0
31	7563	0.00000488128	0
31	7597	0.00000490194	0
31	7623	0.00000492128	0
31	7654	0.00000494128	0
31	7683	0.00000496128	0
31	7711	0.00000498128	0
31	7739	0.00000500128	0
31	7774	0.00000502128	0
31	7801	0.00000504128	0
31	7829	0.00000506128	0
31	7857	0.00000508128	0
31	7888	0.00000510128	0
31	7937	0.00000512128	0
31	7968	0.00000514128	0
31	7996	0.00000516128	0
31	8027	0.00000518128	0
31	8053	0.00000520128	0
31	8081	0.00000522128	0
31	8109	0.00000524128	0
31	8138	0.00000526128	0
31	8156	0.00000528128	0
31	8179	0.00000530128	0
31	8195	0.00000532128	0
31	8219	0.00000534194	0
31	8253	0.000005377	0
32	117	0.000000106	3
32	133	0.000000126	3
32	150	0.000000146	3
32	168	0.000000166	3
32	188	0.000000186	3
32	208	0.000000206	3
32	234	0.000000226	3
32	262	0.000000246	3
32	324	0.000000266	3
32	352	0.000000286	3
32	379	0.000000307	3
32	407	0.000000326	3
32	438	0.000000346	3
32	466	0.000000366	3
32	493	0.000000386	3
32	519	0.000000406	3
32	551	0.000000426	3
32	579	0.000000446	3
32	606	0.000000466	3
32	638	0.000000486	3
32	669	0.000000506	3
32	725	0.000000526	3
32	757	0.000000546	3
32	783	0.000000566	3
32	815	0.000000586	3
32	846	0.000000606	3
32	875	0.000000626	3
32	903	0.000000646	3
32	931	0.000000666	3
32	966	0.000000686	3
32	995	0.000000706	3
32	1021	0.000000726	3
32	1049	0.000000746	3
32	1080	0.000000766	3
32	1137	0.000000786	3
32	1163	0.000000806	3
32	1191	0.000000826	3
32	1222	0.000000846	3
32	1251	0.000000866	3
32	1277	0.000000886	3
32	1305	0.000000906	3
32	1336	0.000000926	3
32	1365	0.000000946	3
32	1395	0.000000966	3
32	1423	0.000000986	3
32	1454	0.000001006	3
32	1514	0.000001026	3
32	1540	0.000001046	3
32	1572	0.000001066	3
32	1603	0.000001086	3
32	1632	0.000001106	3
32	1660	0.000001126	3
32	1688	0.000001146	3
32	1723	0.000001166	3
32	1752	0.000001186	3
32	1778	0.000001206	3
32	1806	0.000001226	3
32	1837	0.000001246	3
32	1866	0.000001266	3
32	1917	0.000001286	3
32	1945	0.000001306	3
32	1976	0.000001326	3
32	2005	0.000001346	3
32	2031	0.000001366	3
32	2059	0.000001386	3
32	2090	0.000001406	3
32	2119	0.000001426	3
32	2149	0.000001446	3
32	2177	0.000001466	3
32	2208	0.000001486	3
32	2240	0.000001506	3
32	2266	0.000001526	3
32	2329	0.000001546	3
32	2360	0.000001566	3
32	2389	0.000001587	3
32	2417	0.000001606	3
32	2445	0.000001626	3
32	2480	0.000001646	3
32	2509	0.000001666	3
32	2534	0.000001686	3
32	2563	0.000001706	3
32	2594	0.000001726	3
32	2623	0.000001746	3
32	2649	0.000001766	3
32	2677	0.000001786	3
32	2736	0.000001806	3
32	2765	0.000001826	3
32	2791	0.000001846	3
32	2819	0.000001866	3
32	2850	0.000001886	3
32	2879	0.000001906	3
32	2909	0.000001926	3
32	2937	0.000001946	3
32	2968	0.000001966	3
32	3000	0.000001986	3
32	3026	0.000002006	3
32	3058	0.000002026	3
32	3089	0.000002046	3
32	3146	0.000002066	3
32	3174	0.000002086	3
32	3202	0.000002106	3
32	3237	0.000002126	3
32	3266	0.000002146	3
32	3292	0.000002166	3
32	3320	0.000002186	3
32	3351	0.000002206	3
32	3380	0.000002226	3
32	3406	0.000002246	3
32	3434	0.000002266	3
32	3465	0.000002286	3
32	3522	0.000002306	3
32	3548	0.000002326	3
32	3576	0.000002346	3
32	3607	0.000002366	3
32	3636	0.000002386	3
32	3666	0.000002406	3
32	3694	0.000002426	3
32	3725	0.000002446	3
32	3757	0.000002466	3
32	3783	0.000002486	3
32	3815	0.000002506	3
32	3846	0.000002526	3
32	3875	0.000002546	3
32	3928	0.000002566	3
32	3956	0.000002586	3
32	3991	0.000002606	3
32	4020	0.000002626	3
32	4046	0.000002646	3
32	4074	0.000002666	3
32	4105	0.000002686	3
32	4134	0.000002706	3
32	4160	0.000002726	3
32	4188	0.000002746	3
32	4219	0.000002766	3
32	4248	0.000002786	3
32	4274	0.000002806	3
32	4333	0.000002826	3
32	4364	0.000002846	3
32	4393	0.000002867	3
32	4423	0.000002886	3
32	4451	0.000002906	3
32	4482	0.000002926	3
32	4514	0.000002946	3
32	4539	0.000002966	3
32	4572	0.000002986	3
32	4603	0.000003006	3
32	4632	0.000003026	3
32	4660	0.000003046	3
32	4688	0.000003066	3
32	4751	0.000003086	3
32	4780	0.000003106	3
32	4806	0.000003126	3
32	4834	0.000003146	3
32	4865	0.000003166	3
32	4894	0.000003186	3
32	4920	0.000003206	3
32	4948	0.000003226	3
32	4979	0.000003246	3
32	5008	0.000003266	3
32	5034	0.000003286	3
32	5062	0.000003306	3
32	5093	0.000003326	3
32	5150	0.000003346	3
32	5180	0.000003366	3
32	5208	0.000003386	3
32	5239	0.000003406	3
32	5271	0.000003426	3
32	5297	0.000003446	3
32	5329	0.000003466	3
32	5360	0.000003486	3
32	5389	0.000003506	3
32	5417	0.000003526	3
32	5445	0.000003546	3
32	5480	0.000003566	3
32	5537	0.000003586	3
32	5563	0.000003606	3
32	5591	0.000003626	3
32	5622	0.000003646	3
32	5651	0.000003666	3
32	5677	0.000003686	3
32	5705	0.000003706	3
32	5736	0.000003726	3
32	5765	0.000003746	3
32	5791	0.000003766	3
32	5819	0.000003786	3
32	5850	0.000003806	3
32	5879	0.000003826	3
32	5934	0.000003846	3
32	5962	0.000003866	3
32	5993	0.000003886	3
32	6025	0.000003906	3
32	6051	0.000003926	3
32	6083	0.000003946	3
32	6114	0.000003966	3
32	6143	0.000003986	3
32	6171	0.000004006	3
32	6199	0.000004026	3
32	6234	0.000004046	3
32	6263	0.000004066	3
32	6289	0.000004086	3
32	6348	0.000004106	3
32	6379	0.000004126	3
32	6408	0.000004147	3
32	6434	0.000004166	3
32	6462	0.000004186	3
32	6493	0.000004206	3
32	6522	0.000004226	3
32	6547	0.000004246	3
32	6576	0.000004266	3
32	6607	0.000004286	3
32	6636	0.000004306	3
32	6666	0.000004326	3
32	6694	0.000004346	3
32	6753	0.000004366	3
32	6785	0.000004386	3
32	6811	0.000004406	3
32	6843	0.000004426	3
32	6874	0.000004446	3
32	6903	0.000004466	3
32	6931	0.000004486	3
32	6959	0.000004506	3
32	6994	0.000004526	3
32	7023	0.000004546	3
32	7049	0.000004566	3
32	7077	0.000004586	3
32	7108	0.000004606	3
32	7165	0.000004626	3
32	7191	0.000004646	3
32	7219	0.000004666	3
32	7250	0.000004686	3
32	7279	0.000004706	3
32	7305	0.000004726	3
32	7333	0.000004746	3
32	7364	0.000004766	3
32	7393	0.000004786	3
32	7423	0.000004806	3
32	7451	0.000004826	3
32	7482	0.000004846	3
32	7542	0.000004866	3
32	7568	0.000004886	3
32	7600	0.000004906	3
32	7631	0.000004926	3
32	7660	0.000004946	3
32	7688	0.000004966	3
32	7716	0.000004986	3
32	7751	0.000005006	3
32	7780	0.000005026	3
32	7806	0.000005046	3
32	7834	0.000005066	3
32	7865	0.000005086	3
32	7894	0.000005106	3
32	7945	0.000005126	3
32	7973	0.000005146	3
32	8004	0.000005166	3
32	8032	0.000005186	3
32	8058	0.000005206	3
32	8086	0.000005226	3
32	8121	0.000005246	3
32	8142	0.000005266	2
32	8160	0.000005286	1
33	167	0.000000166	3
33	187	0.000000186	3
33	207	0.000000206	3
33	233	0.000000226	3
33	261	0.000000246	3
33	323	0.000000266	3
33	351	0.000000286	3
33	378	0.000000307	3
33	406	0.000000326	3
33	437	0.000000346	3
33	465	0.000000366	3
33	492	0.000000386	3
33	522	0.000000407	3
33	552	0.000000426	3
33	580	0.000000446	3
33	607	0.000000466	3
33	639	0.000000486	3
33	670	0.000000506	3
33	726	0.000000526	3
33	758	0.000000546	3
33	784	0.000000566	3
33	816	0.000000586	3
33	847	0.000000606	3
33	876	0.000000626	3
33	904	0.000000646	3
33	932	0.000000666	3
33	967	0.000000686	3
33	996	0.000000706	3
33	1022	0.000000726	3
33	1050	0.000000746	3
33	1081	0.000000766	3
33	1138	0.000000786	3
33	1164	0.000000806	3
33	1192	0.000000826	3
33	1223	0.000000846	3
33	1252	0.000000866	3
33	1278	0.000000886	3
33	1306	0.000000906	3
33	1337	0.000000926	3
33	1366	0.000000946	3
33	1396	0.000000966	3
33	1424	0.000000986	3
33	1455	0.000001006	3
33	1515	0.000001026	3
33	1541	0.000001046	3
33	1573	0.000001066	3
33	1604	0.000001086	3
33	1633	0.000001106	3
33	1661	0.000001126	3
33	1689	0.000001146	3
33	1724	0.000001166	3
33	1753	0.000001186	3
33	1779	0.000001206	3
33	1807	0.000001226	3
33	1838	0.000001246	3
33	1867	0.000001266	3
33	1918	0.000001286	3
33	1946	0.000001306	3
33	1977	0.000001326	3
33	2006	0.000001346	3
33	2032	0.000001366	3
33	2060	0.000001386	3
33	2091	0.000001406	3
33	2120	0.000001426	3
33	2150	0.000001446	3
33	2178	0.000001466	3
33	2209	0.000001486	3
33	2241	0.000001506	3
33	2267	0.000001526	3
33	2330	0.000001546	3
33	2361	0.000001566	3
33	2390	0.000001587	3
33	2418	0.000001606	3
33	2446	0.000001626	3
33	2481	0.000001646	3
33	2510	0.000001666	3
33	2537	0.000001687	3
33	2564	0.000001706	3
33	2595	0.000001726	3
33	2624	0.000001746	3
33	2650	0.000001766	3
33	2678	0.000001786	3
33	2737	0.000001806	3
33	2766	0.000001826	3
33	2792	0.000001846	3
33	2820	0.000001866	3
33	2851	0.000001886	3
33	2880	0.000001906	3
33	2910	0.000001926	3
33	2938	0.000001946	3
33	2969	0.000001966	3
33	3001	0.000001986	3
33	3027	0.000002006	3
33	3059	0.000002026	3
33	3090	0.000002046	3
33	3147	0.000002066	3
33	3175	0.000002086	3
33	3203	0.000002106	3
33	3238	0.000002126	3
33	3267	0.000002146	3
33	3293	0.000002166	3
33	3321	0.000002186	3
33	3352	0.000002206	3
33	3381	0.000002226	3
33	3407	0.000002246	3
33	3435	0.000002266	3
33	3466	0.000002286	3
33	3523	0.000002306	3
33	3549	0.000002326	3
33	3577	0.000002346	3
33	3608	0.000002366	3
33	3637	0.000002386	3
33	3667	0.000002406	3
33	3695	0.000002426	3
33	3726	0.000002446	3
33	3758	0.000002466	3
33	3784	0.000002486	3
33	3816	0.000002506	3
33	3847	0.000002526	3
33	3876	0.000002546	3
33	3929	0.000002566	3
33	3957	0.000002586	3
33	3992	0.000002606	3
33	4021	0.000002626	3
33	4047	0.000002646	3
33	4075	0.000002666	3
33	4106	0.000002686	3
33	4135	0.000002706	3
33	4161	0.000002726	3
33	4189	0.000002746	3
33	4220	0.000002766	3
33	4249	0.000002786	3
33	4275	0.000002806	3
33	4334	0.000002826	3
33	4365	0.000002846	3
33	4394	0.000002867	3
33	4424	0.000002886	3
33	4452	0.000002906	3
33	4483	0.000002926	3
33	4515	0.000002946	3
33	4542	0.000002967	3
33	4573	0.000002986	3
33	4604	0.000003006	3
33	4633	0.000003026	3
33	4661	0.000003046	3
33	4689	0.000003066	3
33	4752	0.000003086	3
33	4781	0.000003106	3
33	4807	0.000003126	3
33	4835	0.000003146	3
33	4866	0.000003166	3
33	4895	0.000003186	3
33	4921	0.000003206	3
33	4949	0.000003226	3
33	4980	0.000003246	3
33	5009	0.000003266	3
33	5035	0.000003286	3
33	5063	0.000003306	3
33	5094	0.000003326	3
33	5151	0.000003346	3
33	5181	0.000003366	3
33	5209	0.000003386	3
33	5240	0.000003406	3
33	5272	0.000003426	3
33	5298	0.000003446	3
33	5330	0.000003466	3
33	5361	0.000003486	3
33	5390	0.000003506	3
33	5418	0.000003526	3
33	5446	0.000003546	3
33	5481	0.000003566	3
33	5538	0.000003586	3
33	5564	0.000003606	3
33	5592	0.000003626	3
33	5623	0.000003646	3
33	5652	0.000003666	3
33	5678	0.000003686	3
33	5706	0.000003706	3
33	5737	0.000003726	3
33	5766	0.000003746	3
33	5792	0.000003766	3
33	5820	0.000003786	3
33	5851	0.000003806	3
33	5880	0.000003826	3
33	5935	0.000003846	3
33	5963	0.000003866	3
33	5994	0.000003886	3
33	6026	0.000003906	3
33	6052	0.000003926	3
33	6084	0.000003946	3
33	6115	0.000003966	3
33	6144	0.000003986	3
33	6172	0.000004006	3
33	6200	0.000004026	3
33	6235	0.000004046	3
33	6264	0.000004066	3
33	6290	0.000004086	3
33	6349	0.000004106	3
33	6380	0.000004126	3
33	6409	0.000004147	3
33	6435	0.000004166	3
33	6463	0.000004186	3
33	6494	0.000004206	3
33	6523	0.000004226	3
33	6550	0.000004247	3
33	6577	0.000004266	3
33	6608	0.000004286	3
33	6637	0.000004306	3
33	6667	0.000004326	3
33	6695	0.000004346	3
33	6754	0.000004366	3
33	6786	0.000004386	3
33	6812	0.000004406	3
33	6844	0.000004426	3
33	6875	0.000004446	3
33	6904	0.000004466	3
33	6932	0.000004486	3
33	6960	0.000004506	3
33	6995	0.000004526	3
33	7024	0.000004546	3
33	7050	0.000004566	3
33	7078	0.000004586	3
33	7109	0.000004606	3
33	7166	0.000004626	3
33	7192	0.000004646	3
33	7220	0.000004666	3
33	7251	0.000004686	3
33	7280	0.000004706	3
33	7306	0.000004726	3
33	7334	0.000004746	3
33	7365	0.000004766	3
33	7394	0.000004786	3
33	7424	0.000004806	3
33	7452	0.000004826	3
33	7483	0.000004846	3
33	7543	0.000004866	3
33	7569	0.000004886	3
33	7601	0.000004906	3
33	7632	0.000004926	3
33	7661	0.000004946	3
33	7689	0.000004966	3
33	7717	0.000004986	3
33	7752	0.000005006	3
33	7781	0.000005026	3
33	7807	0.000005046	3
33	7835	0.000005066	3
33	7866	0.000005086	3
33	7895	0.000005106	3
33	7946	0.000005126	3
33	7974	0.000005146	3
33	8005	0.000005166	3
33	8033	0.000005186	3
33	8059	0.000005206	3
33	8087	0.000005226	3
33	8122	0.000005246	3
33	8143	0.000005266	3
33	8161	0.000005286	3
33	8182	0.000005306	3
33	8201	0.000005326	3
33	8221	0.000005346	3
33	8231	0.000005366	2
33	8272	0.000005386	1
34	239	0.000000232	1
34	266	0.000000248	1
34	319	0.000000264	1
34	344	0.00000028	1
34	384	0.000000312	1
34	411	0.000000328	1
34	433	0.000000344	1
34	458	0.00000036	1
34	498	0.000000392	1
34	525	0.000000408	1
34	547	0.000000424	1
34	572	0.00000044	1
34	612	0.000000473	1
34	643	0.000000489	1
34	665	0.000000505	1
34	718	0.000000521	1
34	749	0.000000537	1
34	789	0.000000572	1
34	820	0.000000588	1
34	842	0.000000604	1
34	867	0.00000062	1
34	909	0.000000652	1
34	936	0.000000668	1
34	962	0.000000684	1
34	987	0.0000007	1
34	1027	0.000000732	1
34	1054	0.000000748	1
34	1076	0.000000764	1
34	1129	0.00000078	1
34	1169	0.000000812	1
34	1196	0.000000828	1
34	1218	0.000000844	1
34	1243	0.00000086	1
34	1283	0.000000892	1
34	1310	0.000000908	1
34	1332	0.000000924	1
34	1357	0.00000094	1
34	1401	0.000000972	1
34	1428	0.000000988	1
34	1450	0.000001004	1
34	1478	0.00000102	1
34	1546	0.000001052	1
34	1577	0.000001068	1
34	1599	0.000001084	1
34	1624	0.0000011	1
34	1666	0.000001132	1
34	1693	0.000001148	1
34	1719	0.000001164	1
34	1744	0.00000118	1
34	1784	0.000001212	1
34	1811	0.000001228	1
34	1833	0.000001244	1
34	1858	0.00000126	1
34	1923	0.000001292	1
34	1950	0.000001308	1
34	1972	0.000001324	1
34	1997	0.00000134	1
34	2037	0.000001372	1
34	2064	0.000001388	1
34	2086	0.000001404	1
34	2111	0.00000142	1
34	2155	0.000001452	1
34	2182	0.000001468	1
34	2204	0.000001484	1
34	2232	0.0000015	1
34	2272	0.000001532	1
34	2334	0.000001548	1
34	2356	0.000001564	1
34	2381	0.00000158	1
34	2423	0.000001612	1
34	2450	0.000001628	1
34	2476	0.000001644	1
34	2501	0.00000166	1
34	2541	0.000001692	1
34	2568	0.000001708	1
34	2590	0.000001724	1
34	2615	0.00000174	1
34	2655	0.000001772	1
34	2682	0.000001788	1
34	2732	0.000001804	1
34	2757	0.00000182	1
34	2797	0.000001852	1
34	2824	0.000001868	1
34	2846	0.000001884	1
34	2871	0.0000019	1
34	2915	0.000001932	1
34	2942	0.000001948	1
34	2964	0.000001964	1
34	2992	0.00000198	1
34	3032	0.000002012	1
34	3063	0.000002028	1
34	3085	0.000002044	1
34	3138	0.00000206	1
34	3180	0.000002092	1
34	3207	0.000002108	1
34	3233	0.000002124	1
34	3258	0.00000214	1
34	3298	0.000002172	1
34	3325	0.000002188	1
34	3347	0.000002204	1
34	3372	0.00000222	1
34	3412	0.000002252	1
34	3439	0.000002268	1
34	3461	0.000002284	1
34	3486	0.0000023	1
34	3554	0.000002332	1
34	3581	0.000002348	1
34	3603	0.000002364	1
34	3628	0.00000238	1
34	3672	0.000002412	1
34	3699	0.000002428	1
34	3721	0.000002444	1
34	3749	0.00000246	1
34	3789	0.000002492	1
34	3820	0.000002508	1
34	3842	0.000002524	1
34	3867	0.00000254	1
34	3934	0.000002572	1
34	3961	0.000002588	1
34	3987	0.000002604	1
34	4012	0.00000262	1
34	4052	0.000002652	1
34	4079	0.000002668	1
34	4101	0.000002684	1
34	4126	0.0000027	1
34	4166	0.000002732	1
34	4193	0.000002748	1
34	4215	0.000002764	1
34	4240	0.00000278	1
34	4280	0.000002812	1
34	4338	0.000002828	1
34	4360	0.000002844	1
34	4385	0.00000286	1
34	4429	0.000002892	1
34	4456	0.000002908	1
34	4478	0.000002924	1
34	4506	0.00000294	1
34	4546	0.000002972	1
34	4577	0.000002988	1
34	4599	0.000003004	1
34	4624	0.00000302	1
34	4666	0.000003052	1
34	4693	0.000003068	1
34	4747	0.000003084	1
34	4772	0.0000031	1
34	4812	0.000003132	1
34	4839	0.000003148	1
34	4861	0.000003164	1
34	4886	0.00000318	1
34	4926	0.000003212	1
34	4953	0.000003228	1
34	4975	0.000003244	1
34	5000	0.00000326	1
34	5040	0.000003292	1
34	5067	0.000003308	1
34	5089	0.000003324	1
34	5142	0.00000334	1
34	5186	0.000003372	1
34	5213	0.000003388	1
34	5235	0.000003404	1
34	5263	0.00000342	1
34	5303	0.000003452	1
34	5334	0.000003468	1
34	5356	0.000003484	1
34	5381	0.0000035	1
34	5423	0.000003532	1
34	5450	0.000003548	1
34	5476	0.000003564	1
34	5501	0.00000358	1
34	5569	0.000003612	1
34	5596	0.000003628	1
34	5618	0.000003644	1
34	5643	0.00000366	1
34	5683	0.000003692	1
34	5710	0.000003708	1
34	5732	0.000003724	1
34	5757	0.00000374	1
34	5797	0.000003772	1
34	5824	0.000003788	1
34	5846	0.000003804	1
34	5871	0.00000382	1
34	5940	0.000003852	1
34	5967	0.000003868	1
34	5989	0.000003884	1
34	6017	0.0000039	1
34	6057	0.000003932	1
34	6088	0.000003948	1
34	6110	0.000003964	1
34	6135	0.00000398	1
34	6177	0.000004012	1
34	6204	0.000004028	1
34	6230	0.000004044	1
34	6255	0.00000406	1
34	6295	0.000004092	1
34	6353	0.000004108	1
34	6375	0.000004124	1
34	6400	0.00000414	1
34	6440	0.000004172	1
34	6467	0.000004188	1
34	6489	0.000004204	1
34	6514	0.00000422	1
34	6554	0.000004252	1
34	6581	0.000004268	1
34	6603	0.000004284	1
34	6628	0.0000043	1
34	6672	0.000004332	1
34	6699	0.000004348	1
34	6749	0.000004364	1
34	6777	0.00000438	1
34	6817	0.000004412	1
34	6848	0.000004428	1
34	6870	0.000004444	1
34	6895	0.00000446	1
34	6937	0.000004492	1
34	6964	0.000004508	1
34	6990	0.000004524	1
34	7015	0.00000454	1
34	7055	0.000004572	1
34	7082	0.000004588	1
34	7104	0.000004604	1
34	7157	0.00000462	1
34	7197	0.000004652	1
34	7224	0.000004668	1
34	7246	0.000004684	1
34	7271	0.0000047	1
34	7311	0.000004732	1
34	7338	0.000004748	1
34	7360	0.000004764	1
34	7385	0.00000478	1
34	7429	0.000004812	1
34	7456	0.000004828	1
34	7478	0.000004844	1
34	7506	0.00000486	1
34	7574	0.000004892	1
34	7605	0.000004908	1
34	7627	0.000004924	1
34	7652	0.00000494	1
34	7694	0.000004972	1
34	7721	0.000004988	1
34	7747	0.000005004	1
34	7772	0.00000502	1
34	7812	0.000005052	1
34	7839	0.000005068	1
34	7861	0.000005084	1
34	7886	0.0000051	1
34	7951	0.000005132	1
34	7978	0.000005148	1
34	8000	0.000005164	1
34	8025	0.00000518	1
34	8065	0.000005212	1
34	8091	0.000005228	1
34	8117	0.000005244	1
34	8136	0.00000526	1
34	8168	0.000005292	1
34	8185	0.000005308	1
34	8198	0.000005324	1
34	8212	0.00000534	1
34	8234	0.000005372	1
34	8277	0.000005388	1
34	8286	0.000005404	1
34	8293	0.00000542	1

